SRC-ABL TYROSINE KINASE ANCESTOR
     RDKit          3D

 94 98  0  0  0  0  0  0  0  0999 V2000
   -0.2035   -1.9454    3.2961 C   0  0  0  0  0  0  0  0  0  0  0  0
    0.9612   -2.2187    2.3729 C   0  0  0  0  0  0  0  0  0  0  0  0
    2.2343   -1.8402    3.0508 C   0  0  1  0  0  0  0  0  0  0  0  0
    2.2520   -2.3012    4.4889 C   0  0  0  0  0  0  0  0  0  0  0  0
    1.1250   -1.8544    5.2631 N   0  0  0  0  0  0  0  0  0  0  0  0
    0.1934   -1.1023    4.4804 C   0  0  0  0  0  0  0  0  0  0  0  0
    3.4612   -2.3339    2.3603 C   0  0  0  0  0  0  0  0  0  0  0  0
    3.4928   -3.8240    2.1927 C   0  0  0  0  0  0  0  0  0  0  0  0
    4.8981   -4.1399    1.6646 C   0  0  0  0  0  0  0  0  0  0  0  0
    4.9307   -3.5665    0.3500 N   0  0  0  0  0  0  0  0  0  0  0  0
    4.7234   -2.1460    0.3228 C   0  0  0  0  0  0  0  0  0  0  0  0
    3.6806   -1.6439    1.1134 N   0  0  0  0  0  0  0  0  0  0  0  0
    4.6572   -1.7615   -1.0344 N   0  0  0  0  0  0  0  0  0  0  0  0
    4.4953   -0.3986   -1.3922 C   0  0  1  0  0  0  0  0  0  0  0  0
    5.0100   -0.2954   -2.8300 C   0  0  1  0  0  0  0  0  0  0  0  0
    4.2959    0.7796   -3.5966 C   0  0  0  0  0  0  0  0  0  0  0  0
    2.8289    0.5347   -3.7018 C   0  0  0  0  0  0  0  0  0  0  0  0
    2.2977   -0.3200   -2.5429 C   0  0  0  0  0  0  0  0  0  0  0  0
    3.0723    0.0770   -1.3094 C   0  0  0  0  0  0  0  0  0  0  0  0
    0.9028   -0.0129   -2.4580 N   0  0  0  0  0  0  0  0  0  0  0  0
    0.1582   -0.6392   -1.4184 C   0  0  0  0  0  0  0  0  0  0  0  0
   -1.2785   -0.1545   -1.5343 C   0  0  0  0  0  0  0  0  0  0  0  0
   -1.7871   -0.5676   -2.9147 C   0  0  0  0  0  0  0  0  0  0  0  0
   -3.0554    0.2598   -3.0516 C   0  0  0  0  0  0  0  0  0  0  0  0
   -4.0558   -0.0149   -1.9602 C   0  0  0  0  0  0  0  0  0  0  0  0
   -3.6026   -0.7166   -0.7669 C   0  0  0  0  0  0  0  0  0  0  0  0
   -2.1288   -0.8899   -0.5607 C   0  0  0  0  0  0  0  0  0  0  0  0
   -4.8643    1.2272   -1.7528 C   0  0  0  0  0  0  0  0  0  0  0  0
   -4.1795    2.4170   -1.3701 N   0  0  0  0  0  0  0  0  0  0  0  0
   -5.0652    3.5795   -1.4459 C   0  0  0  0  0  0  0  0  0  0  0  0
   -5.1785    4.3851   -0.2137 C   0  0  0  0  0  0  0  0  0  0  0  0
   -5.4389    3.6411    0.9959 N   0  0  0  0  0  0  0  0  0  0  0  0
   -6.8557    3.4877    1.2521 C   0  0  0  0  0  0  0  0  0  0  0  0
   -4.7318    2.3763    1.0156 C   0  0  0  0  0  0  0  0  0  0  0  0
   -3.6432    2.4308   -0.0327 C   0  0  0  0  0  0  0  0  0  0  0  0
    0.2313   -2.0258   -1.3967 O   0  0  0  0  0  0  0  0  0  0  0  0
    6.4592    0.1344   -2.7261 C   0  0  0  0  0  0  0  0  0  0  0  0
   -1.0428   -1.4008    2.7870 H   0  0  0  0  0  0  0  0  0  0  0  0
   -0.6402   -2.8932    3.6569 H   0  0  0  0  0  0  0  0  0  0  0  0
    0.9239   -3.2967    2.0879 H   0  0  0  0  0  0  0  0  0  0  0  0
    0.8009   -1.6150    1.4717 H   0  0  0  0  0  0  0  0  0  0  0  0
    2.2482   -0.7207    3.0853 H   0  0  0  0  0  0  0  0  0  0  0  0
    3.1850   -1.9986    4.9845 H   0  0  0  0  0  0  0  0  0  0  0  0
    2.1832   -3.4274    4.4891 H   0  0  0  0  0  0  0  0  0  0  0  0
    0.6170   -2.6103    5.7369 H   0  0  0  0  0  0  0  0  0  0  0  0
   -0.7368   -1.0016    5.1079 H   0  0  0  0  0  0  0  0  0  0  0  0
    0.4966   -0.0871    4.2205 H   0  0  0  0  0  0  0  0  0  0  0  0
    4.3664   -2.0928    2.9995 H   0  0  0  0  0  0  0  0  0  0  0  0
    2.7453   -4.1907    1.4551 H   0  0  0  0  0  0  0  0  0  0  0  0
    3.4003   -4.3379    3.1497 H   0  0  0  0  0  0  0  0  0  0  0  0
    4.9774   -5.2319    1.5806 H   0  0  0  0  0  0  0  0  0  0  0  0
    5.6139   -3.7060    2.3572 H   0  0  0  0  0  0  0  0  0  0  0  0
    4.3837   -4.1065   -0.3407 H   0  0  0  0  0  0  0  0  0  0  0  0
    5.6967   -1.7062    0.7255 H   0  0  0  0  0  0  0  0  0  0  0  0
    3.9372   -0.6358    1.4105 H   0  0  0  0  0  0  0  0  0  0  0  0
    3.9888   -2.3985   -1.5546 H   0  0  0  0  0  0  0  0  0  0  0  0
    5.1289    0.2168   -0.7059 H   0  0  0  0  0  0  0  0  0  0  0  0
    4.9736   -1.2706   -3.3440 H   0  0  0  0  0  0  0  0  0  0  0  0
    4.7195    0.7780   -4.6215 H   0  0  0  0  0  0  0  0  0  0  0  0
    4.5651    1.7817   -3.1841 H   0  0  0  0  0  0  0  0  0  0  0  0
    2.5271    0.0796   -4.6750 H   0  0  0  0  0  0  0  0  0  0  0  0
    2.3053    1.5102   -3.6460 H   0  0  0  0  0  0  0  0  0  0  0  0
    2.4829   -1.3748   -2.8486 H   0  0  0  0  0  0  0  0  0  0  0  0
    2.5503   -0.2354   -0.4076 H   0  0  0  0  0  0  0  0  0  0  0  0
    3.0770    1.2019   -1.3019 H   0  0  0  0  0  0  0  0  0  0  0  0
    0.6255    0.9479   -2.6609 H   0  0  0  0  0  0  0  0  0  0  0  0
    0.5427   -0.2772   -0.4382 H   0  0  0  0  0  0  0  0  0  0  0  0
   -1.2868    0.9491   -1.4468 H   0  0  0  0  0  0  0  0  0  0  0  0
   -1.1018   -0.3100   -3.7171 H   0  0  0  0  0  0  0  0  0  0  0  0
   -2.0502   -1.6330   -2.8583 H   0  0  0  0  0  0  0  0  0  0  0  0
   -2.7148    1.3138   -3.0141 H   0  0  0  0  0  0  0  0  0  0  0  0
   -3.4572    0.1029   -4.0715 H   0  0  0  0  0  0  0  0  0  0  0  0
   -4.8058   -0.7209   -2.4833 H   0  0  0  0  0  0  0  0  0  0  0  0
   -4.0279   -1.7741   -0.7176 H   0  0  0  0  0  0  0  0  0  0  0  0
   -4.0282   -0.2565    0.1445 H   0  0  0  0  0  0  0  0  0  0  0  0
   -1.8172   -1.9540   -0.6152 H   0  0  0  0  0  0  0  0  0  0  0  0
   -1.8312   -0.5689    0.4675 H   0  0  0  0  0  0  0  0  0  0  0  0
   -5.4007    1.4530   -2.7262 H   0  0  0  0  0  0  0  0  0  0  0  0
   -5.6791    0.9483   -1.0403 H   0  0  0  0  0  0  0  0  0  0  0  0
   -4.5727    4.2379   -2.2228 H   0  0  0  0  0  0  0  0  0  0  0  0
   -6.0440    3.3252   -1.8955 H   0  0  0  0  0  0  0  0  0  0  0  0
   -4.3669    5.1121   -0.0405 H   0  0  0  0  0  0  0  0  0  0  0  0
   -6.1001    5.0376   -0.3451 H   0  0  0  0  0  0  0  0  0  0  0  0
   -7.3826    2.9510    0.4444 H   0  0  0  0  0  0  0  0  0  0  0  0
   -7.2434    4.5182    1.4220 H   0  0  0  0  0  0  0  0  0  0  0  0
   -6.9640    2.9674    2.2251 H   0  0  0  0  0  0  0  0  0  0  0  0
   -4.2413    2.2685    2.0046 H   0  0  0  0  0  0  0  0  0  0  0  0
   -5.4238    1.5217    0.9043 H   0  0  0  0  0  0  0  0  0  0  0  0
   -3.2064    3.4743    0.0815 H   0  0  0  0  0  0  0  0  0  0  0  0
   -2.8134    1.7667    0.1641 H   0  0  0  0  0  0  0  0  0  0  0  0
    0.7490   -2.3591   -2.1505 H   0  0  0  0  0  0  0  0  0  0  0  0
    7.0972   -0.5819   -2.2040 H   0  0  0  0  0  0  0  0  0  0  0  0
    6.8544    0.4664   -3.7009 H   0  0  0  0  0  0  0  0  0  0  0  0
    6.4312    1.0793   -2.1070 H   0  0  0  0  0  0  0  0  0  0  0  0
  1  2  1  0
  1  6  1  0
  2  3  1  0
  3  4  1  0
  3  7  1  0
  4  5  1  0
  5  6  1  0
  7  8  1  0
  7 12  1  0
  8  9  1  0
  9 10  1  0
 10 11  1  0
 11 12  1  0
 11 13  1  0
 13 14  1  0
 14 15  1  0
 14 19  1  0
 15 16  1  0
 15 37  1  0
 16 17  1  0
 17 18  1  0
 18 19  1  0
 18 20  1  0
 20 21  1  0
 21 22  1  0
 21 36  1  0
 22 23  1  0
 22 27  1  0
 23 24  1  0
 24 25  1  0
 25 26  1  0
 25 28  1  0
 26 27  1  0
 28 29  1  0
 29 30  1  0
 29 35  1  0
 30 31  1  0
 31 32  1  0
 32 33  1  0
 32 34  1  0
 34 35  1  0
  1 38  1  0
  1 39  1  0
  2 40  1  0
  2 41  1  0
  3 42  1  1
  4 43  1  0
  4 44  1  0
  5 45  1  0
  6 46  1  0
  6 47  1  0
  7 48  1  0
  8 49  1  0
  8 50  1  0
  9 51  1  0
  9 52  1  0
 10 53  1  0
 11 54  1  0
 12 55  1  0
 13 56  1  0
 14 57  1  1
 15 58  1  6
 16 59  1  0
 16 60  1  0
 17 61  1  0
 17 62  1  0
 18 63  1  0
 19 64  1  0
 19 65  1  0
 20 66  1  0
 21 67  1  0
 22 68  1  0
 23 69  1  0
 23 70  1  0
 24 71  1  0
 24 72  1  0
 25 73  1  0
 26 74  1  0
 26 75  1  0
 27 76  1  0
 27 77  1  0
 28 78  1  0
 28 79  1  0
 30 80  1  0
 30 81  1  0
 31 82  1  0
 31 83  1  0
 33 84  1  0
 33 85  1  0
 33 86  1  0
 34 87  1  0
 34 88  1  0
 35 89  1  0
 35 90  1  0
 36 91  1  0
 37 92  1  0
 37 93  1  0
 37 94  1  0
M  END
$$$$
SRC-ABL TYROSINE KINASE ANCESTOR
     RDKit          3D

 94 98  0  0  0  0  0  0  0  0999 V2000
    2.0277   -3.8586   -0.3148 C   0  0  0  0  0  0  0  0  0  0  0  0
    2.3184   -2.5937   -1.1091 C   0  0  0  0  0  0  0  0  0  0  0  0
    1.6087   -1.4650   -0.4242 C   0  0  1  0  0  0  0  0  0  0  0  0
    2.3073   -1.2135    0.8904 C   0  0  0  0  0  0  0  0  0  0  0  0
    2.2878   -2.4131    1.6678 N   0  0  0  0  0  0  0  0  0  0  0  0
    1.5700   -3.5100    1.0775 C   0  0  0  0  0  0  0  0  0  0  0  0
    1.5617   -0.1950   -1.2310 C   0  0  0  0  0  0  0  0  0  0  0  0
    2.9436    0.3326   -1.5513 C   0  0  0  0  0  0  0  0  0  0  0  0
    2.6900    1.6091   -2.3682 C   0  0  0  0  0  0  0  0  0  0  0  0
    1.2611    1.8637   -2.3472 N   0  0  0  0  0  0  0  0  0  0  0  0
    0.5304    0.8271   -3.0671 C   0  0  0  0  0  0  0  0  0  0  0  0
    0.9165   -0.4402   -2.4995 N   0  0  0  0  0  0  0  0  0  0  0  0
   -0.8649    1.0477   -2.8399 N   0  0  0  0  0  0  0  0  0  0  0  0
   -1.7892    0.2270   -3.5549 C   0  0  1  0  0  0  0  0  0  0  0  0
   -1.7104   -1.1861   -3.1522 C   0  0  1  0  0  0  0  0  0  0  0  0
   -3.0469   -1.8828   -3.0359 C   0  0  0  0  0  0  0  0  0  0  0  0
   -4.1017   -1.1322   -2.2878 C   0  0  0  0  0  0  0  0  0  0  0  0
   -3.9852    0.3384   -2.3063 C   0  0  0  0  0  0  0  0  0  0  0  0
   -3.1565    0.8474   -3.4566 C   0  0  0  0  0  0  0  0  0  0  0  0
   -3.5470    0.9650   -1.0875 N   0  0  0  0  0  0  0  0  0  0  0  0
   -4.3979    0.7970    0.0415 C   0  0  0  0  0  0  0  0  0  0  0  0
   -3.7897    1.5253    1.2249 C   0  0  0  0  0  0  0  0  0  0  0  0
   -3.6657    2.9788    0.8784 C   0  0  0  0  0  0  0  0  0  0  0  0
   -2.1927    3.2902    0.7898 C   0  0  0  0  0  0  0  0  0  0  0  0
   -1.5008    3.0932    2.1289 C   0  0  0  0  0  0  0  0  0  0  0  0
   -1.9226    1.8199    2.7772 C   0  0  0  0  0  0  0  0  0  0  0  0
   -2.5198    0.9030    1.7145 C   0  0  0  0  0  0  0  0  0  0  0  0
   -0.0220    3.1526    1.8376 C   0  0  0  0  0  0  0  0  0  0  0  0
    0.8000    2.9844    2.9942 N   0  0  0  0  0  0  0  0  0  0  0  0
    2.1952    3.0663    2.5348 C   0  0  0  0  0  0  0  0  0  0  0  0
    3.1547    3.0167    3.6836 C   0  0  0  0  0  0  0  0  0  0  0  0
    2.4953    2.8630    4.9505 N   0  0  0  0  0  0  0  0  0  0  0  0
    1.9653    1.5327    5.0354 C   0  0  0  0  0  0  0  0  0  0  0  0
    1.5104    3.8877    5.1376 C   0  0  0  0  0  0  0  0  0  0  0  0
    0.6465    4.1109    3.9079 C   0  0  0  0  0  0  0  0  0  0  0  0
   -5.6721    1.3387   -0.1494 O   0  0  0  0  0  0  0  0  0  0  0  0
   -0.9465   -1.9503   -4.2149 C   0  0  0  0  0  0  0  0  0  0  0  0
    2.8969   -4.5422   -0.3219 H   0  0  0  0  0  0  0  0  0  0  0  0
    1.1329   -4.3405   -0.8085 H   0  0  0  0  0  0  0  0  0  0  0  0
    3.4114   -2.3848   -1.0647 H   0  0  0  0  0  0  0  0  0  0  0  0
    1.9840   -2.7349   -2.1646 H   0  0  0  0  0  0  0  0  0  0  0  0
    0.5763   -1.7731   -0.2108 H   0  0  0  0  0  0  0  0  0  0  0  0
    1.8967   -0.3321    1.4059 H   0  0  0  0  0  0  0  0  0  0  0  0
    3.3919   -0.9764    0.6947 H   0  0  0  0  0  0  0  0  0  0  0  0
    1.8872   -2.2151    2.5922 H   0  0  0  0  0  0  0  0  0  0  0  0
    1.8038   -4.4025    1.7214 H   0  0  0  0  0  0  0  0  0  0  0  0
    0.4677   -3.3895    1.1366 H   0  0  0  0  0  0  0  0  0  0  0  0
    1.0230    0.5538   -0.6486 H   0  0  0  0  0  0  0  0  0  0  0  0
    3.5313    0.5706   -0.6578 H   0  0  0  0  0  0  0  0  0  0  0  0
    3.4462   -0.3760   -2.2420 H   0  0  0  0  0  0  0  0  0  0  0  0
    3.1604    2.4566   -1.8463 H   0  0  0  0  0  0  0  0  0  0  0  0
    3.1134    1.5523   -3.3772 H   0  0  0  0  0  0  0  0  0  0  0  0
    0.9955    2.8105   -2.6357 H   0  0  0  0  0  0  0  0  0  0  0  0
    0.7698    0.8546   -4.1576 H   0  0  0  0  0  0  0  0  0  0  0  0
    1.5658   -0.9051   -3.1699 H   0  0  0  0  0  0  0  0  0  0  0  0
   -1.1549    2.0519   -2.8287 H   0  0  0  0  0  0  0  0  0  0  0  0
   -1.5172    0.3372   -4.6529 H   0  0  0  0  0  0  0  0  0  0  0  0
   -1.1728   -1.3505   -2.1973 H   0  0  0  0  0  0  0  0  0  0  0  0
   -2.8667   -2.8420   -2.5074 H   0  0  0  0  0  0  0  0  0  0  0  0
   -3.3951   -2.1504   -4.0556 H   0  0  0  0  0  0  0  0  0  0  0  0
   -5.0956   -1.4205   -2.7380 H   0  0  0  0  0  0  0  0  0  0  0  0
   -4.1835   -1.4849   -1.2374 H   0  0  0  0  0  0  0  0  0  0  0  0
   -5.0156    0.7747   -2.4940 H   0  0  0  0  0  0  0  0  0  0  0  0
   -3.7251    0.7377   -4.4021 H   0  0  0  0  0  0  0  0  0  0  0  0
   -3.0448    1.9442   -3.2970 H   0  0  0  0  0  0  0  0  0  0  0  0
   -2.6126    0.6096   -0.8714 H   0  0  0  0  0  0  0  0  0  0  0  0
   -4.5148   -0.2658    0.3299 H   0  0  0  0  0  0  0  0  0  0  0  0
   -4.5368    1.3980    2.0553 H   0  0  0  0  0  0  0  0  0  0  0  0
   -4.1093    3.2551   -0.0980 H   0  0  0  0  0  0  0  0  0  0  0  0
   -4.0710    3.5776    1.7125 H   0  0  0  0  0  0  0  0  0  0  0  0
   -1.6810    2.6511    0.0242 H   0  0  0  0  0  0  0  0  0  0  0  0
   -2.0948    4.3319    0.4385 H   0  0  0  0  0  0  0  0  0  0  0  0
   -1.7931    3.9386    2.7658 H   0  0  0  0  0  0  0  0  0  0  0  0
   -2.6041    1.9517    3.6321 H   0  0  0  0  0  0  0  0  0  0  0  0
   -1.0249    1.2855    3.1533 H   0  0  0  0  0  0  0  0  0  0  0  0
   -2.7986   -0.0788    2.1650 H   0  0  0  0  0  0  0  0  0  0  0  0
   -1.7418    0.7410    0.9681 H   0  0  0  0  0  0  0  0  0  0  0  0
    0.2816    2.4534    1.0390 H   0  0  0  0  0  0  0  0  0  0  0  0
    0.1831    4.1893    1.4422 H   0  0  0  0  0  0  0  0  0  0  0  0
    2.3566    4.0153    1.9819 H   0  0  0  0  0  0  0  0  0  0  0  0
    2.4098    2.2603    1.7721 H   0  0  0  0  0  0  0  0  0  0  0  0
    3.8041    3.9251    3.7091 H   0  0  0  0  0  0  0  0  0  0  0  0
    3.8466    2.1553    3.5129 H   0  0  0  0  0  0  0  0  0  0  0  0
    2.6094    0.8767    5.6792 H   0  0  0  0  0  0  0  0  0  0  0  0
    0.9752    1.5699    5.5063 H   0  0  0  0  0  0  0  0  0  0  0  0
    1.8807    1.0794    4.0314 H   0  0  0  0  0  0  0  0  0  0  0  0
    0.9029    3.6079    6.0248 H   0  0  0  0  0  0  0  0  0  0  0  0
    2.0614    4.8224    5.3897 H   0  0  0  0  0  0  0  0  0  0  0  0
    0.9961    5.0629    3.4163 H   0  0  0  0  0  0  0  0  0  0  0  0
   -0.4009    4.2754    4.2204 H   0  0  0  0  0  0  0  0  0  0  0  0
   -6.3637    0.6276   -0.1466 H   0  0  0  0  0  0  0  0  0  0  0  0
   -1.6257   -2.5562   -4.8553 H   0  0  0  0  0  0  0  0  0  0  0  0
   -0.3177   -1.2631   -4.8361 H   0  0  0  0  0  0  0  0  0  0  0  0
   -0.2649   -2.6543   -3.7063 H   0  0  0  0  0  0  0  0  0  0  0  0
  1  2  1  0
  1  6  1  0
  2  3  1  0
  3  4  1  0
  3  7  1  0
  4  5  1  0
  5  6  1  0
  7  8  1  0
  7 12  1  0
  8  9  1  0
  9 10  1  0
 10 11  1  0
 11 12  1  0
 11 13  1  0
 13 14  1  0
 14 15  1  0
 14 19  1  0
 15 16  1  0
 15 37  1  0
 16 17  1  0
 17 18  1  0
 18 19  1  0
 18 20  1  0
 20 21  1  0
 21 22  1  0
 21 36  1  0
 22 23  1  0
 22 27  1  0
 23 24  1  0
 24 25  1  0
 25 26  1  0
 25 28  1  0
 26 27  1  0
 28 29  1  0
 29 30  1  0
 29 35  1  0
 30 31  1  0
 31 32  1  0
 32 33  1  0
 32 34  1  0
 34 35  1  0
  1 38  1  0
  1 39  1  0
  2 40  1  0
  2 41  1  0
  3 42  1  1
  4 43  1  0
  4 44  1  0
  5 45  1  0
  6 46  1  0
  6 47  1  0
  7 48  1  0
  8 49  1  0
  8 50  1  0
  9 51  1  0
  9 52  1  0
 10 53  1  0
 11 54  1  0
 12 55  1  0
 13 56  1  0
 14 57  1  6
 15 58  1  1
 16 59  1  0
 16 60  1  0
 17 61  1  0
 17 62  1  0
 18 63  1  0
 19 64  1  0
 19 65  1  0
 20 66  1  0
 21 67  1  0
 22 68  1  0
 23 69  1  0
 23 70  1  0
 24 71  1  0
 24 72  1  0
 25 73  1  0
 26 74  1  0
 26 75  1  0
 27 76  1  0
 27 77  1  0
 28 78  1  0
 28 79  1  0
 30 80  1  0
 30 81  1  0
 31 82  1  0
 31 83  1  0
 33 84  1  0
 33 85  1  0
 33 86  1  0
 34 87  1  0
 34 88  1  0
 35 89  1  0
 35 90  1  0
 36 91  1  0
 37 92  1  0
 37 93  1  0
 37 94  1  0
M  END
$$$$
SRC-ABL TYROSINE KINASE ANCESTOR
     RDKit          3D

 94 98  0  0  0  0  0  0  0  0999 V2000
   -5.9867    2.0686    1.6651 C   0  0  0  0  0  0  0  0  0  0  0  0
   -5.5823    0.7806    2.3522 C   0  0  0  0  0  0  0  0  0  0  0  0
   -4.4961    0.1372    1.4964 C   0  0  1  0  0  0  0  0  0  0  0  0
   -3.6382    1.2839    1.0072 C   0  0  0  0  0  0  0  0  0  0  0  0
   -4.3106    1.8732   -0.1232 N   0  0  0  0  0  0  0  0  0  0  0  0
   -5.7274    2.0050    0.1772 C   0  0  0  0  0  0  0  0  0  0  0  0
   -3.6852   -0.8490    2.3092 C   0  0  0  0  0  0  0  0  0  0  0  0
   -3.0085   -0.1962    3.4828 C   0  0  0  0  0  0  0  0  0  0  0  0
   -1.7281   -0.9487    3.7842 C   0  0  0  0  0  0  0  0  0  0  0  0
   -1.7978   -2.3521    3.5283 N   0  0  0  0  0  0  0  0  0  0  0  0
   -2.2463   -2.6851    2.1765 C   0  0  0  0  0  0  0  0  0  0  0  0
   -2.6372   -1.4387    1.5000 N   0  0  0  0  0  0  0  0  0  0  0  0
   -1.2517   -3.3897    1.4436 N   0  0  0  0  0  0  0  0  0  0  0  0
   -1.6283   -3.9074    0.1530 C   0  0  1  0  0  0  0  0  0  0  0  0
   -1.9882   -2.8712   -0.8377 C   0  0  1  0  0  0  0  0  0  0  0  0
   -1.5854   -3.1470   -2.2608 C   0  0  0  0  0  0  0  0  0  0  0  0
   -0.2881   -3.8455   -2.4424 C   0  0  0  0  0  0  0  0  0  0  0  0
    0.4405   -4.1097   -1.1553 C   0  0  0  0  0  0  0  0  0  0  0  0
   -0.5123   -4.8449   -0.2522 C   0  0  0  0  0  0  0  0  0  0  0  0
    0.9825   -2.9397   -0.5172 N   0  0  0  0  0  0  0  0  0  0  0  0
    1.9216   -2.3076   -1.4231 C   0  0  0  0  0  0  0  0  0  0  0  0
    2.5785   -1.0773   -0.8530 C   0  0  0  0  0  0  0  0  0  0  0  0
    1.5681   -0.0212   -0.5040 C   0  0  0  0  0  0  0  0  0  0  0  0
    2.1700    1.2080    0.0794 C   0  0  0  0  0  0  0  0  0  0  0  0
    3.6272    1.1783    0.3626 C   0  0  0  0  0  0  0  0  0  0  0  0
    4.2384   -0.1463    0.6536 C   0  0  0  0  0  0  0  0  0  0  0  0
    3.3764   -1.3481    0.3788 C   0  0  0  0  0  0  0  0  0  0  0  0
    4.3989    1.9328   -0.7231 C   0  0  0  0  0  0  0  0  0  0  0  0
    4.0361    3.3110   -0.8480 N   0  0  0  0  0  0  0  0  0  0  0  0
    4.7879    3.9457   -1.9569 C   0  0  0  0  0  0  0  0  0  0  0  0
    4.1636    5.2508   -2.2716 C   0  0  0  0  0  0  0  0  0  0  0  0
    3.4149    5.8424   -1.2149 N   0  0  0  0  0  0  0  0  0  0  0  0
    1.9875    5.8027   -1.4108 C   0  0  0  0  0  0  0  0  0  0  0  0
    3.8321    5.5164    0.1050 C   0  0  0  0  0  0  0  0  0  0  0  0
    4.4045    4.1352    0.2875 C   0  0  0  0  0  0  0  0  0  0  0  0
    2.8873   -3.2092   -1.8169 O   0  0  0  0  0  0  0  0  0  0  0  0
   -3.5198   -2.7190   -0.8776 C   0  0  0  0  0  0  0  0  0  0  0  0
   -7.0787    2.2422    1.7914 H   0  0  0  0  0  0  0  0  0  0  0  0
   -5.4114    2.9376    2.0696 H   0  0  0  0  0  0  0  0  0  0  0  0
   -5.2000    1.0725    3.3467 H   0  0  0  0  0  0  0  0  0  0  0  0
   -6.4455    0.0984    2.5008 H   0  0  0  0  0  0  0  0  0  0  0  0
   -5.0016   -0.4117    0.6850 H   0  0  0  0  0  0  0  0  0  0  0  0
   -2.6185    0.9322    0.7631 H   0  0  0  0  0  0  0  0  0  0  0  0
   -3.5897    2.0660    1.7991 H   0  0  0  0  0  0  0  0  0  0  0  0
   -4.2398    1.1837   -0.9061 H   0  0  0  0  0  0  0  0  0  0  0  0
   -6.3232    1.1952   -0.2962 H   0  0  0  0  0  0  0  0  0  0  0  0
   -6.0600    2.9685   -0.2505 H   0  0  0  0  0  0  0  0  0  0  0  0
   -4.3335   -1.6559    2.6805 H   0  0  0  0  0  0  0  0  0  0  0  0
   -2.6981    0.8315    3.1802 H   0  0  0  0  0  0  0  0  0  0  0  0
   -3.6703   -0.1247    4.3543 H   0  0  0  0  0  0  0  0  0  0  0  0
   -1.5633   -0.8386    4.8893 H   0  0  0  0  0  0  0  0  0  0  0  0
   -0.8290   -0.4899    3.3026 H   0  0  0  0  0  0  0  0  0  0  0  0
   -2.3259   -2.8666    4.2577 H   0  0  0  0  0  0  0  0  0  0  0  0
   -3.1456   -3.3076    2.2711 H   0  0  0  0  0  0  0  0  0  0  0  0
   -1.8184   -0.7976    1.5562 H   0  0  0  0  0  0  0  0  0  0  0  0
   -0.4193   -2.7657    1.3677 H   0  0  0  0  0  0  0  0  0  0  0  0
   -2.5574   -4.5639    0.3067 H   0  0  0  0  0  0  0  0  0  0  0  0
   -1.5853   -1.8953   -0.5525 H   0  0  0  0  0  0  0  0  0  0  0  0
   -1.5220   -2.1632   -2.7847 H   0  0  0  0  0  0  0  0  0  0  0  0
   -2.4408   -3.6691   -2.7576 H   0  0  0  0  0  0  0  0  0  0  0  0
    0.3533   -3.4315   -3.2490 H   0  0  0  0  0  0  0  0  0  0  0  0
   -0.5532   -4.8751   -2.8359 H   0  0  0  0  0  0  0  0  0  0  0  0
    1.2492   -4.8524   -1.3982 H   0  0  0  0  0  0  0  0  0  0  0  0
   -0.9879   -5.6751   -0.8562 H   0  0  0  0  0  0  0  0  0  0  0  0
   -0.0079   -5.2619    0.6450 H   0  0  0  0  0  0  0  0  0  0  0  0
    1.6001   -3.3251    0.2640 H   0  0  0  0  0  0  0  0  0  0  0  0
    1.3251   -1.9313   -2.2886 H   0  0  0  0  0  0  0  0  0  0  0  0
    3.2616   -0.7022   -1.6374 H   0  0  0  0  0  0  0  0  0  0  0  0
    0.8451   -0.4137    0.2573 H   0  0  0  0  0  0  0  0  0  0  0  0
    0.9386    0.1484   -1.4092 H   0  0  0  0  0  0  0  0  0  0  0  0
    2.0041    2.0272   -0.6876 H   0  0  0  0  0  0  0  0  0  0  0  0
    1.5744    1.5910    0.9597 H   0  0  0  0  0  0  0  0  0  0  0  0
    3.7599    1.7799    1.3184 H   0  0  0  0  0  0  0  0  0  0  0  0
    4.6669   -0.2265    1.6830 H   0  0  0  0  0  0  0  0  0  0  0  0
    5.1377   -0.2686   -0.0188 H   0  0  0  0  0  0  0  0  0  0  0  0
    2.7440   -1.5151    1.2803 H   0  0  0  0  0  0  0  0  0  0  0  0
    4.0278   -2.2417    0.2926 H   0  0  0  0  0  0  0  0  0  0  0  0
    5.4896    1.9341   -0.4167 H   0  0  0  0  0  0  0  0  0  0  0  0
    4.3946    1.3961   -1.6855 H   0  0  0  0  0  0  0  0  0  0  0  0
    5.8125    4.1083   -1.5617 H   0  0  0  0  0  0  0  0  0  0  0  0
    4.8913    3.2639   -2.8175 H   0  0  0  0  0  0  0  0  0  0  0  0
    3.5106    5.1464   -3.1593 H   0  0  0  0  0  0  0  0  0  0  0  0
    4.9814    5.9448   -2.6134 H   0  0  0  0  0  0  0  0  0  0  0  0
    1.7188    6.6512   -2.0749 H   0  0  0  0  0  0  0  0  0  0  0  0
    1.4116    5.9052   -0.4891 H   0  0  0  0  0  0  0  0  0  0  0  0
    1.7281    4.8707   -1.9907 H   0  0  0  0  0  0  0  0  0  0  0  0
    4.5437    6.2755    0.4793 H   0  0  0  0  0  0  0  0  0  0  0  0
    2.9381    5.5769    0.7787 H   0  0  0  0  0  0  0  0  0  0  0  0
    5.5252    4.2663    0.2184 H   0  0  0  0  0  0  0  0  0  0  0  0
    4.2056    3.7079    1.2653 H   0  0  0  0  0  0  0  0  0  0  0  0
    3.0524   -3.9354   -1.1374 H   0  0  0  0  0  0  0  0  0  0  0  0
   -3.9367   -3.2157   -1.8080 H   0  0  0  0  0  0  0  0  0  0  0  0
   -4.0089   -3.2645   -0.0529 H   0  0  0  0  0  0  0  0  0  0  0  0
   -3.8312   -1.6668   -0.9890 H   0  0  0  0  0  0  0  0  0  0  0  0
  1  2  1  0
  1  6  1  0
  2  3  1  0
  3  4  1  0
  3  7  1  0
  4  5  1  0
  5  6  1  0
  7  8  1  0
  7 12  1  0
  8  9  1  0
  9 10  1  0
 10 11  1  0
 11 12  1  0
 11 13  1  0
 13 14  1  0
 14 15  1  0
 14 19  1  0
 15 16  1  0
 15 37  1  0
 16 17  1  0
 17 18  1  0
 18 19  1  0
 18 20  1  0
 20 21  1  0
 21 22  1  0
 21 36  1  0
 22 23  1  0
 22 27  1  0
 23 24  1  0
 24 25  1  0
 25 26  1  0
 25 28  1  0
 26 27  1  0
 28 29  1  0
 29 30  1  0
 29 35  1  0
 30 31  1  0
 31 32  1  0
 32 33  1  0
 32 34  1  0
 34 35  1  0
  1 38  1  0
  1 39  1  0
  2 40  1  0
  2 41  1  0
  3 42  1  6
  4 43  1  0
  4 44  1  0
  5 45  1  0
  6 46  1  0
  6 47  1  0
  7 48  1  0
  8 49  1  0
  8 50  1  0
  9 51  1  0
  9 52  1  0
 10 53  1  0
 11 54  1  0
 12 55  1  0
 13 56  1  0
 14 57  1  1
 15 58  1  1
 16 59  1  0
 16 60  1  0
 17 61  1  0
 17 62  1  0
 18 63  1  0
 19 64  1  0
 19 65  1  0
 20 66  1  0
 21 67  1  0
 22 68  1  0
 23 69  1  0
 23 70  1  0
 24 71  1  0
 24 72  1  0
 25 73  1  0
 26 74  1  0
 26 75  1  0
 27 76  1  0
 27 77  1  0
 28 78  1  0
 28 79  1  0
 30 80  1  0
 30 81  1  0
 31 82  1  0
 31 83  1  0
 33 84  1  0
 33 85  1  0
 33 86  1  0
 34 87  1  0
 34 88  1  0
 35 89  1  0
 35 90  1  0
 36 91  1  0
 37 92  1  0
 37 93  1  0
 37 94  1  0
M  END
$$$$
SRC-ABL TYROSINE KINASE ANCESTOR
     RDKit          3D

 94 98  0  0  0  0  0  0  0  0999 V2000
   -3.3670   -2.4315    2.1456 C   0  0  0  0  0  0  0  0  0  0  0  0
   -2.5596   -1.4994    2.9807 C   0  0  0  0  0  0  0  0  0  0  0  0
   -1.5512   -2.1179    3.8647 C   0  0  1  0  0  0  0  0  0  0  0  0
   -1.6423   -3.5894    4.0763 C   0  0  0  0  0  0  0  0  0  0  0  0
   -3.0500   -3.9445    4.0501 N   0  0  0  0  0  0  0  0  0  0  0  0
   -3.4245   -3.8395    2.6538 C   0  0  0  0  0  0  0  0  0  0  0  0
   -0.1212   -1.8157    3.3964 C   0  0  0  0  0  0  0  0  0  0  0  0
    0.8793   -2.4913    4.3365 C   0  0  0  0  0  0  0  0  0  0  0  0
    2.2564   -2.1476    3.7922 C   0  0  0  0  0  0  0  0  0  0  0  0
    2.1842   -1.3560    2.6060 N   0  0  0  0  0  0  0  0  0  0  0  0
    1.3794   -1.9164    1.5749 C   0  0  0  0  0  0  0  0  0  0  0  0
    0.0787   -2.3596    2.0839 N   0  0  0  0  0  0  0  0  0  0  0  0
    1.9989   -2.9514    0.7891 N   0  0  0  0  0  0  0  0  0  0  0  0
    3.1771   -2.5615    0.0866 C   0  0  1  0  0  0  0  0  0  0  0  0
    3.7842   -3.6810   -0.7191 C   0  0  1  0  0  0  0  0  0  0  0  0
    3.9606   -3.3517   -2.1646 C   0  0  0  0  0  0  0  0  0  0  0  0
    2.7280   -2.7309   -2.7756 C   0  0  0  0  0  0  0  0  0  0  0  0
    2.3346   -1.4624   -2.0303 C   0  0  0  0  0  0  0  0  0  0  0  0
    3.0832   -1.3355   -0.7384 C   0  0  0  0  0  0  0  0  0  0  0  0
    0.9289   -1.4861   -1.8757 N   0  0  0  0  0  0  0  0  0  0  0  0
    0.0892   -1.3161   -2.9823 C   0  0  0  0  0  0  0  0  0  0  0  0
   -0.2791   -0.0041   -3.4987 C   0  0  0  0  0  0  0  0  0  0  0  0
    0.8584    0.8434   -3.9426 C   0  0  0  0  0  0  0  0  0  0  0  0
    0.3523    2.0592   -4.7125 C   0  0  0  0  0  0  0  0  0  0  0  0
   -0.6102    2.9042   -3.8668 C   0  0  0  0  0  0  0  0  0  0  0  0
   -1.6922    2.0090   -3.4174 C   0  0  0  0  0  0  0  0  0  0  0  0
   -1.2614    0.7982   -2.6556 C   0  0  0  0  0  0  0  0  0  0  0  0
    0.1095    3.7630   -2.9142 C   0  0  0  0  0  0  0  0  0  0  0  0
   -0.5801    4.6708   -2.0735 N   0  0  0  0  0  0  0  0  0  0  0  0
    0.4572    5.4648   -1.3770 C   0  0  0  0  0  0  0  0  0  0  0  0
    0.8828    4.7537   -0.1335 C   0  0  0  0  0  0  0  0  0  0  0  0
   -0.2050    4.7085    0.8316 N   0  0  0  0  0  0  0  0  0  0  0  0
   -0.0798    5.7181    1.8653 C   0  0  0  0  0  0  0  0  0  0  0  0
   -1.4861    4.9134    0.1809 C   0  0  0  0  0  0  0  0  0  0  0  0
   -1.5176    4.1539   -1.1619 C   0  0  0  0  0  0  0  0  0  0  0  0
   -1.1123   -2.0214   -2.7021 O   0  0  0  0  0  0  0  0  0  0  0  0
    5.1600   -3.9842   -0.1611 C   0  0  0  0  0  0  0  0  0  0  0  0
   -4.4164   -2.0657    2.1089 H   0  0  0  0  0  0  0  0  0  0  0  0
   -3.0360   -2.4612    1.0883 H   0  0  0  0  0  0  0  0  0  0  0  0
   -3.2466   -0.8602    3.6096 H   0  0  0  0  0  0  0  0  0  0  0  0
   -2.0579   -0.7670    2.3120 H   0  0  0  0  0  0  0  0  0  0  0  0
   -1.5844   -1.6526    4.8935 H   0  0  0  0  0  0  0  0  0  0  0  0
   -1.1719   -4.1392    3.2235 H   0  0  0  0  0  0  0  0  0  0  0  0
   -1.1423   -3.8540    5.0312 H   0  0  0  0  0  0  0  0  0  0  0  0
   -3.2615   -4.8970    4.3727 H   0  0  0  0  0  0  0  0  0  0  0  0
   -2.6986   -4.4709    2.1032 H   0  0  0  0  0  0  0  0  0  0  0  0
   -4.4199   -4.3110    2.5331 H   0  0  0  0  0  0  0  0  0  0  0  0
    0.0345   -0.7350    3.4678 H   0  0  0  0  0  0  0  0  0  0  0  0
    0.7230   -3.5841    4.2061 H   0  0  0  0  0  0  0  0  0  0  0  0
    0.7466   -2.1790    5.3830 H   0  0  0  0  0  0  0  0  0  0  0  0
    2.7484   -1.5232    4.5938 H   0  0  0  0  0  0  0  0  0  0  0  0
    2.9126   -3.0562    3.6983 H   0  0  0  0  0  0  0  0  0  0  0  0
    3.1260   -1.1420    2.2615 H   0  0  0  0  0  0  0  0  0  0  0  0
    1.1204   -1.0716    0.8808 H   0  0  0  0  0  0  0  0  0  0  0  0
   -0.7136   -2.0540    1.4789 H   0  0  0  0  0  0  0  0  0  0  0  0
    2.1396   -3.8214    1.3270 H   0  0  0  0  0  0  0  0  0  0  0  0
    3.9365   -2.3171    0.9038 H   0  0  0  0  0  0  0  0  0  0  0  0
    3.2001   -4.6395   -0.5751 H   0  0  0  0  0  0  0  0  0  0  0  0
    4.8743   -2.7615   -2.3718 H   0  0  0  0  0  0  0  0  0  0  0  0
    4.1203   -4.3242   -2.7082 H   0  0  0  0  0  0  0  0  0  0  0  0
    2.9517   -2.4968   -3.8292 H   0  0  0  0  0  0  0  0  0  0  0  0
    1.9112   -3.4893   -2.7756 H   0  0  0  0  0  0  0  0  0  0  0  0
    2.6262   -0.6345   -2.7397 H   0  0  0  0  0  0  0  0  0  0  0  0
    2.7125   -0.4445   -0.1885 H   0  0  0  0  0  0  0  0  0  0  0  0
    4.1489   -1.0841   -1.0439 H   0  0  0  0  0  0  0  0  0  0  0  0
    0.5889   -2.1751   -1.1624 H   0  0  0  0  0  0  0  0  0  0  0  0
    0.5481   -1.9006   -3.8411 H   0  0  0  0  0  0  0  0  0  0  0  0
   -0.8821   -0.1981   -4.4528 H   0  0  0  0  0  0  0  0  0  0  0  0
    1.5092    0.2810   -4.6167 H   0  0  0  0  0  0  0  0  0  0  0  0
    1.4756    1.2658   -3.1225 H   0  0  0  0  0  0  0  0  0  0  0  0
    1.2284    2.7000   -4.9150 H   0  0  0  0  0  0  0  0  0  0  0  0
   -0.1170    1.7833   -5.6573 H   0  0  0  0  0  0  0  0  0  0  0  0
   -1.0713    3.6001   -4.6414 H   0  0  0  0  0  0  0  0  0  0  0  0
   -2.2023    1.6658   -4.4051 H   0  0  0  0  0  0  0  0  0  0  0  0
   -2.5299    2.5419   -2.9220 H   0  0  0  0  0  0  0  0  0  0  0  0
   -0.8655    1.0601   -1.6905 H   0  0  0  0  0  0  0  0  0  0  0  0
   -2.1606    0.1302   -2.5407 H   0  0  0  0  0  0  0  0  0  0  0  0
    0.9191    4.3123   -3.5134 H   0  0  0  0  0  0  0  0  0  0  0  0
    0.7706    3.1544   -2.2100 H   0  0  0  0  0  0  0  0  0  0  0  0
    1.3259    5.5579   -2.0626 H   0  0  0  0  0  0  0  0  0  0  0  0
    0.0889    6.4705   -1.1236 H   0  0  0  0  0  0  0  0  0  0  0  0
    1.2058    3.7248   -0.3057 H   0  0  0  0  0  0  0  0  0  0  0  0
    1.7435    5.3208    0.3054 H   0  0  0  0  0  0  0  0  0  0  0  0
   -0.3589    5.2766    2.8670 H   0  0  0  0  0  0  0  0  0  0  0  0
   -0.8089    6.5675    1.7239 H   0  0  0  0  0  0  0  0  0  0  0  0
    0.9367    6.1263    1.9227 H   0  0  0  0  0  0  0  0  0  0  0  0
   -1.7202    5.9728    0.0594 H   0  0  0  0  0  0  0  0  0  0  0  0
   -2.2612    4.4394    0.8093 H   0  0  0  0  0  0  0  0  0  0  0  0
   -1.4670    3.1029   -0.9250 H   0  0  0  0  0  0  0  0  0  0  0  0
   -2.5464    4.3986   -1.5494 H   0  0  0  0  0  0  0  0  0  0  0  0
   -1.4200   -1.7698   -1.8054 H   0  0  0  0  0  0  0  0  0  0  0  0
    5.3531   -3.4601    0.8152 H   0  0  0  0  0  0  0  0  0  0  0  0
    5.3268   -5.0631    0.0366 H   0  0  0  0  0  0  0  0  0  0  0  0
    5.9617   -3.5784   -0.8427 H   0  0  0  0  0  0  0  0  0  0  0  0
  1  2  1  0
  1  6  1  0
  2  3  1  0
  3  4  1  0
  3  7  1  0
  4  5  1  0
  5  6  1  0
  7  8  1  0
  7 12  1  0
  8  9  1  0
  9 10  1  0
 10 11  1  0
 11 12  1  0
 11 13  1  0
 13 14  1  0
 14 15  1  0
 14 19  1  0
 15 16  1  0
 15 37  1  0
 16 17  1  0
 17 18  1  0
 18 19  1  0
 18 20  1  0
 20 21  1  0
 21 22  1  0
 21 36  1  0
 22 23  1  0
 22 27  1  0
 23 24  1  0
 24 25  1  0
 25 26  1  0
 25 28  1  0
 26 27  1  0
 28 29  1  0
 29 30  1  0
 29 35  1  0
 30 31  1  0
 31 32  1  0
 32 33  1  0
 32 34  1  0
 34 35  1  0
  1 38  1  0
  1 39  1  0
  2 40  1  0
  2 41  1  0
  3 42  1  1
  4 43  1  0
  4 44  1  0
  5 45  1  0
  6 46  1  0
  6 47  1  0
  7 48  1  0
  8 49  1  0
  8 50  1  0
  9 51  1  0
  9 52  1  0
 10 53  1  0
 11 54  1  0
 12 55  1  0
 13 56  1  0
 14 57  1  1
 15 58  1  6
 16 59  1  0
 16 60  1  0
 17 61  1  0
 17 62  1  0
 18 63  1  0
 19 64  1  0
 19 65  1  0
 20 66  1  0
 21 67  1  0
 22 68  1  0
 23 69  1  0
 23 70  1  0
 24 71  1  0
 24 72  1  0
 25 73  1  0
 26 74  1  0
 26 75  1  0
 27 76  1  0
 27 77  1  0
 28 78  1  0
 28 79  1  0
 30 80  1  0
 30 81  1  0
 31 82  1  0
 31 83  1  0
 33 84  1  0
 33 85  1  0
 33 86  1  0
 34 87  1  0
 34 88  1  0
 35 89  1  0
 35 90  1  0
 36 91  1  0
 37 92  1  0
 37 93  1  0
 37 94  1  0
M  END
$$$$
SRC-ABL TYROSINE KINASE ANCESTOR
     RDKit          3D

 94 98  0  0  0  0  0  0  0  0999 V2000
    5.9246   -0.2317    4.5691 C   0  0  0  0  0  0  0  0  0  0  0  0
    5.4403   -1.2562    3.5757 C   0  0  0  0  0  0  0  0  0  0  0  0
    4.1069   -1.8633    3.9252 C   0  0  1  0  0  0  0  0  0  0  0  0
    3.5079   -1.0966    5.0565 C   0  0  0  0  0  0  0  0  0  0  0  0
    3.5483    0.3215    4.8425 N   0  0  0  0  0  0  0  0  0  0  0  0
    4.9067    0.8158    4.8782 C   0  0  0  0  0  0  0  0  0  0  0  0
    3.2401   -1.8831    2.6719 C   0  0  0  0  0  0  0  0  0  0  0  0
    1.8867   -2.4619    2.8814 C   0  0  0  0  0  0  0  0  0  0  0  0
    0.7904   -1.4828    3.1249 C   0  0  0  0  0  0  0  0  0  0  0  0
    1.1132   -0.1130    2.8195 N   0  0  0  0  0  0  0  0  0  0  0  0
    2.0403    0.0216    1.7430 C   0  0  0  0  0  0  0  0  0  0  0  0
    3.3130   -0.6002    2.0861 N   0  0  0  0  0  0  0  0  0  0  0  0
    2.3659    1.3624    1.4556 N   0  0  0  0  0  0  0  0  0  0  0  0
    1.3740    2.2778    1.0631 C   0  0  1  0  0  0  0  0  0  0  0  0
    2.1044    3.6084    0.8198 C   0  0  1  0  0  0  0  0  0  0  0  0
    1.6411    4.1996   -0.5140 C   0  0  0  0  0  0  0  0  0  0  0  0
    0.1468    4.1935   -0.6023 C   0  0  0  0  0  0  0  0  0  0  0  0
   -0.4397    2.7754   -0.6353 C   0  0  0  0  0  0  0  0  0  0  0  0
    0.6614    1.8417   -0.1784 C   0  0  0  0  0  0  0  0  0  0  0  0
   -1.5700    2.7869    0.1991 N   0  0  0  0  0  0  0  0  0  0  0  0
   -2.4467    1.6914    0.2671 C   0  0  0  0  0  0  0  0  0  0  0  0
   -3.3813    1.4281   -0.8424 C   0  0  0  0  0  0  0  0  0  0  0  0
   -4.1988    0.1788   -0.4668 C   0  0  0  0  0  0  0  0  0  0  0  0
   -3.3784   -1.0593   -0.5705 C   0  0  0  0  0  0  0  0  0  0  0  0
   -2.5854   -1.2077   -1.8265 C   0  0  0  0  0  0  0  0  0  0  0  0
   -1.9260    0.0275   -2.3343 C   0  0  0  0  0  0  0  0  0  0  0  0
   -2.8781    1.1829   -2.2064 C   0  0  0  0  0  0  0  0  0  0  0  0
   -1.4672   -2.2190   -1.5527 C   0  0  0  0  0  0  0  0  0  0  0  0
   -0.6357   -2.4361   -2.6924 N   0  0  0  0  0  0  0  0  0  0  0  0
   -1.2426   -3.1054   -3.7970 C   0  0  0  0  0  0  0  0  0  0  0  0
   -0.2228   -3.1080   -4.9261 C   0  0  0  0  0  0  0  0  0  0  0  0
    0.7912   -2.0739   -4.6915 N   0  0  0  0  0  0  0  0  0  0  0  0
    1.6482   -2.0136   -5.8546 C   0  0  0  0  0  0  0  0  0  0  0  0
    1.5842   -2.4290   -3.5294 C   0  0  0  0  0  0  0  0  0  0  0  0
    0.6933   -2.8655   -2.3746 C   0  0  0  0  0  0  0  0  0  0  0  0
   -3.2683    1.9261    1.4103 O   0  0  0  0  0  0  0  0  0  0  0  0
    1.8741    4.5620    1.9697 C   0  0  0  0  0  0  0  0  0  0  0  0
    6.3074   -0.6609    5.4972 H   0  0  0  0  0  0  0  0  0  0  0  0
    6.7983    0.2776    4.0751 H   0  0  0  0  0  0  0  0  0  0  0  0
    6.1933   -2.0712    3.5416 H   0  0  0  0  0  0  0  0  0  0  0  0
    5.4295   -0.8195    2.5500 H   0  0  0  0  0  0  0  0  0  0  0  0
    4.2020   -2.9267    4.2348 H   0  0  0  0  0  0  0  0  0  0  0  0
    2.5170   -1.4633    5.3667 H   0  0  0  0  0  0  0  0  0  0  0  0
    4.1722   -1.2919    5.9461 H   0  0  0  0  0  0  0  0  0  0  0  0
    2.9171    0.8330    5.4853 H   0  0  0  0  0  0  0  0  0  0  0  0
    5.0310    1.7429    4.2484 H   0  0  0  0  0  0  0  0  0  0  0  0
    5.0834    1.1860    5.9171 H   0  0  0  0  0  0  0  0  0  0  0  0
    3.8017   -2.5834    1.9787 H   0  0  0  0  0  0  0  0  0  0  0  0
    1.6396   -3.1212    1.9963 H   0  0  0  0  0  0  0  0  0  0  0  0
    1.9828   -3.1865    3.7393 H   0  0  0  0  0  0  0  0  0  0  0  0
   -0.0890   -1.7878    2.4838 H   0  0  0  0  0  0  0  0  0  0  0  0
    0.4420   -1.6035    4.1807 H   0  0  0  0  0  0  0  0  0  0  0  0
    0.2147    0.3592    2.6314 H   0  0  0  0  0  0  0  0  0  0  0  0
    1.5896   -0.5287    0.8650 H   0  0  0  0  0  0  0  0  0  0  0  0
    3.8739   -0.5633    1.1937 H   0  0  0  0  0  0  0  0  0  0  0  0
    3.3375    1.5348    1.1382 H   0  0  0  0  0  0  0  0  0  0  0  0
    0.6204    2.4849    1.8337 H   0  0  0  0  0  0  0  0  0  0  0  0
    3.2001    3.4713    0.7212 H   0  0  0  0  0  0  0  0  0  0  0  0
    1.9626    5.2505   -0.5231 H   0  0  0  0  0  0  0  0  0  0  0  0
    2.1491    3.6629   -1.3290 H   0  0  0  0  0  0  0  0  0  0  0  0
   -0.1175    4.7798   -1.5027 H   0  0  0  0  0  0  0  0  0  0  0  0
   -0.2367    4.7716    0.2641 H   0  0  0  0  0  0  0  0  0  0  0  0
   -0.5849    2.5578   -1.7053 H   0  0  0  0  0  0  0  0  0  0  0  0
    1.4053    1.7949   -0.9982 H   0  0  0  0  0  0  0  0  0  0  0  0
    0.2886    0.8058   -0.0307 H   0  0  0  0  0  0  0  0  0  0  0  0
   -1.4966    3.4181    0.9994 H   0  0  0  0  0  0  0  0  0  0  0  0
   -1.8819    0.7736    0.5759 H   0  0  0  0  0  0  0  0  0  0  0  0
   -4.1275    2.2563   -0.9025 H   0  0  0  0  0  0  0  0  0  0  0  0
   -5.1086    0.0788   -1.0866 H   0  0  0  0  0  0  0  0  0  0  0  0
   -4.4886    0.3206    0.5975 H   0  0  0  0  0  0  0  0  0  0  0  0
   -4.1056   -1.9203   -0.5546 H   0  0  0  0  0  0  0  0  0  0  0  0
   -2.6999   -1.2290    0.3078 H   0  0  0  0  0  0  0  0  0  0  0  0
   -3.1952   -1.6633   -2.6599 H   0  0  0  0  0  0  0  0  0  0  0  0
   -1.7693   -0.1376   -3.4474 H   0  0  0  0  0  0  0  0  0  0  0  0
   -0.9186    0.1983   -1.9511 H   0  0  0  0  0  0  0  0  0  0  0  0
   -2.5921    2.0821   -2.7973 H   0  0  0  0  0  0  0  0  0  0  0  0
   -3.7994    0.8226   -2.7915 H   0  0  0  0  0  0  0  0  0  0  0  0
   -0.8551   -1.8379   -0.7118 H   0  0  0  0  0  0  0  0  0  0  0  0
   -1.8688   -3.1952   -1.2217 H   0  0  0  0  0  0  0  0  0  0  0  0
   -2.1103   -2.5102   -4.1529 H   0  0  0  0  0  0  0  0  0  0  0  0
   -1.5581   -4.1489   -3.5769 H   0  0  0  0  0  0  0  0  0  0  0  0
   -0.7240   -2.8842   -5.8907 H   0  0  0  0  0  0  0  0  0  0  0  0
    0.3164   -4.0722   -4.9424 H   0  0  0  0  0  0  0  0  0  0  0  0
    1.5333   -1.0063   -6.3013 H   0  0  0  0  0  0  0  0  0  0  0  0
    1.3968   -2.7665   -6.6231 H   0  0  0  0  0  0  0  0  0  0  0  0
    2.7174   -2.1440   -5.5594 H   0  0  0  0  0  0  0  0  0  0  0  0
    2.0909   -1.4766   -3.2107 H   0  0  0  0  0  0  0  0  0  0  0  0
    2.3020   -3.2252   -3.7268 H   0  0  0  0  0  0  0  0  0  0  0  0
    0.9917   -2.3312   -1.4410 H   0  0  0  0  0  0  0  0  0  0  0  0
    0.7848   -3.9409   -2.1727 H   0  0  0  0  0  0  0  0  0  0  0  0
   -2.7463    2.2154    2.1764 H   0  0  0  0  0  0  0  0  0  0  0  0
    1.3050    4.0020    2.7673 H   0  0  0  0  0  0  0  0  0  0  0  0
    1.3427    5.4668    1.6564 H   0  0  0  0  0  0  0  0  0  0  0  0
    2.8172    4.8911    2.4679 H   0  0  0  0  0  0  0  0  0  0  0  0
  1  2  1  0
  1  6  1  0
  2  3  1  0
  3  4  1  0
  3  7  1  0
  4  5  1  0
  5  6  1  0
  7  8  1  0
  7 12  1  0
  8  9  1  0
  9 10  1  0
 10 11  1  0
 11 12  1  0
 11 13  1  0
 13 14  1  0
 14 15  1  0
 14 19  1  0
 15 16  1  0
 15 37  1  0
 16 17  1  0
 17 18  1  0
 18 19  1  0
 18 20  1  0
 20 21  1  0
 21 22  1  0
 21 36  1  0
 22 23  1  0
 22 27  1  0
 23 24  1  0
 24 25  1  0
 25 26  1  0
 25 28  1  0
 26 27  1  0
 28 29  1  0
 29 30  1  0
 29 35  1  0
 30 31  1  0
 31 32  1  0
 32 33  1  0
 32 34  1  0
 34 35  1  0
  1 38  1  0
  1 39  1  0
  2 40  1  0
  2 41  1  0
  3 42  1  1
  4 43  1  0
  4 44  1  0
  5 45  1  0
  6 46  1  0
  6 47  1  0
  7 48  1  0
  8 49  1  0
  8 50  1  0
  9 51  1  0
  9 52  1  0
 10 53  1  0
 11 54  1  0
 12 55  1  0
 13 56  1  0
 14 57  1  1
 15 58  1  6
 16 59  1  0
 16 60  1  0
 17 61  1  0
 17 62  1  0
 18 63  1  0
 19 64  1  0
 19 65  1  0
 20 66  1  0
 21 67  1  0
 22 68  1  0
 23 69  1  0
 23 70  1  0
 24 71  1  0
 24 72  1  0
 25 73  1  0
 26 74  1  0
 26 75  1  0
 27 76  1  0
 27 77  1  0
 28 78  1  0
 28 79  1  0
 30 80  1  0
 30 81  1  0
 31 82  1  0
 31 83  1  0
 33 84  1  0
 33 85  1  0
 33 86  1  0
 34 87  1  0
 34 88  1  0
 35 89  1  0
 35 90  1  0
 36 91  1  0
 37 92  1  0
 37 93  1  0
 37 94  1  0
M  END
$$$$
SRC-ABL TYROSINE KINASE ANCESTOR
     RDKit          3D

 94 98  0  0  0  0  0  0  0  0999 V2000
    6.7266    2.5977   -4.0377 C   0  0  0  0  0  0  0  0  0  0  0  0
    5.7355    3.2072   -3.0432 C   0  0  0  0  0  0  0  0  0  0  0  0
    5.8241    2.4118   -1.7909 C   0  0  1  0  0  0  0  0  0  0  0  0
    7.2603    2.4672   -1.2768 C   0  0  0  0  0  0  0  0  0  0  0  0
    8.1900    1.9842   -2.2527 N   0  0  0  0  0  0  0  0  0  0  0  0
    7.5451    1.4888   -3.4283 C   0  0  0  0  0  0  0  0  0  0  0  0
    4.8416    2.7891   -0.7091 C   0  0  0  0  0  0  0  0  0  0  0  0
    4.9632    4.2142   -0.2760 C   0  0  0  0  0  0  0  0  0  0  0  0
    3.5443    4.7353   -0.0140 C   0  0  0  0  0  0  0  0  0  0  0  0
    2.8446    4.5000   -1.2643 N   0  0  0  0  0  0  0  0  0  0  0  0
    2.4695    3.0720   -1.3137 C   0  0  0  0  0  0  0  0  0  0  0  0
    3.5437    2.2756   -0.8905 N   0  0  0  0  0  0  0  0  0  0  0  0
    1.9250    2.8542   -2.5691 N   0  0  0  0  0  0  0  0  0  0  0  0
    1.4575    1.6383   -3.0607 C   0  0  1  0  0  0  0  0  0  0  0  0
    2.5530    0.6409   -3.2420 C   0  0  1  0  0  0  0  0  0  0  0  0
    2.6394   -0.5172   -2.3417 C   0  0  0  0  0  0  0  0  0  0  0  0
    1.4035   -0.9818   -1.6497 C   0  0  0  0  0  0  0  0  0  0  0  0
    0.4510    0.1267   -1.3243 C   0  0  0  0  0  0  0  0  0  0  0  0
    0.2265    1.0658   -2.4648 C   0  0  0  0  0  0  0  0  0  0  0  0
   -0.6982   -0.3368   -0.6761 N   0  0  0  0  0  0  0  0  0  0  0  0
   -1.6041   -1.2199   -1.2509 C   0  0  0  0  0  0  0  0  0  0  0  0
   -2.7260   -1.5461   -0.2899 C   0  0  0  0  0  0  0  0  0  0  0  0
   -3.5462   -0.3944    0.1656 C   0  0  0  0  0  0  0  0  0  0  0  0
   -4.3262   -0.9285    1.3999 C   0  0  0  0  0  0  0  0  0  0  0  0
   -3.3398   -0.8553    2.5193 C   0  0  0  0  0  0  0  0  0  0  0  0
   -2.1104   -1.6495    2.1390 C   0  0  0  0  0  0  0  0  0  0  0  0
   -2.2478   -2.4139    0.8536 C   0  0  0  0  0  0  0  0  0  0  0  0
   -3.8345   -1.1617    3.8811 C   0  0  0  0  0  0  0  0  0  0  0  0
   -4.3740   -2.4316    4.1557 N   0  0  0  0  0  0  0  0  0  0  0  0
   -5.6381   -2.6413    3.5133 C   0  0  0  0  0  0  0  0  0  0  0  0
   -6.6830   -3.1663    4.4960 C   0  0  0  0  0  0  0  0  0  0  0  0
   -6.2282   -4.2924    5.2506 N   0  0  0  0  0  0  0  0  0  0  0  0
   -5.8735   -5.4110    4.3971 C   0  0  0  0  0  0  0  0  0  0  0  0
   -5.0319   -3.9101    5.9976 C   0  0  0  0  0  0  0  0  0  0  0  0
   -4.5616   -2.5520    5.5898 C   0  0  0  0  0  0  0  0  0  0  0  0
   -1.1471   -2.4495   -1.6957 O   0  0  0  0  0  0  0  0  0  0  0  0
    2.7135    0.2438   -4.7164 C   0  0  0  0  0  0  0  0  0  0  0  0
    7.4452    3.3509   -4.4207 H   0  0  0  0  0  0  0  0  0  0  0  0
    6.2007    2.1577   -4.9264 H   0  0  0  0  0  0  0  0  0  0  0  0
    6.1222    4.2457   -2.8491 H   0  0  0  0  0  0  0  0  0  0  0  0
    4.7689    3.2141   -3.5452 H   0  0  0  0  0  0  0  0  0  0  0  0
    5.6654    1.3437   -2.0368 H   0  0  0  0  0  0  0  0  0  0  0  0
    7.4687    3.5612   -1.1436 H   0  0  0  0  0  0  0  0  0  0  0  0
    7.3442    1.9881   -0.2958 H   0  0  0  0  0  0  0  0  0  0  0  0
    8.8611    1.3113   -1.8247 H   0  0  0  0  0  0  0  0  0  0  0  0
    7.0144    0.5336   -3.3160 H   0  0  0  0  0  0  0  0  0  0  0  0
    8.3715    1.2804   -4.1695 H   0  0  0  0  0  0  0  0  0  0  0  0
    5.2371    2.2080    0.2051 H   0  0  0  0  0  0  0  0  0  0  0  0
    5.5077    4.3764    0.6760 H   0  0  0  0  0  0  0  0  0  0  0  0
    5.4807    4.8582   -1.0151 H   0  0  0  0  0  0  0  0  0  0  0  0
    3.1348    4.0928    0.7926 H   0  0  0  0  0  0  0  0  0  0  0  0
    3.5409    5.7966    0.2270 H   0  0  0  0  0  0  0  0  0  0  0  0
    1.9809    5.0948   -1.2878 H   0  0  0  0  0  0  0  0  0  0  0  0
    1.7051    3.0369   -0.4629 H   0  0  0  0  0  0  0  0  0  0  0  0
    3.2779    1.5036   -0.2268 H   0  0  0  0  0  0  0  0  0  0  0  0
    1.9297    3.6760   -3.2300 H   0  0  0  0  0  0  0  0  0  0  0  0
    1.1422    1.8882   -4.1391 H   0  0  0  0  0  0  0  0  0  0  0  0
    3.5171    1.2375   -3.0666 H   0  0  0  0  0  0  0  0  0  0  0  0
    3.4897   -0.4176   -1.5986 H   0  0  0  0  0  0  0  0  0  0  0  0
    3.0139   -1.3838   -2.9800 H   0  0  0  0  0  0  0  0  0  0  0  0
    0.9757   -1.8159   -2.2398 H   0  0  0  0  0  0  0  0  0  0  0  0
    1.7270   -1.4596   -0.6843 H   0  0  0  0  0  0  0  0  0  0  0  0
    0.9933    0.7558   -0.5526 H   0  0  0  0  0  0  0  0  0  0  0  0
   -0.3195    0.4922   -3.2423 H   0  0  0  0  0  0  0  0  0  0  0  0
   -0.4743    1.8605   -2.1409 H   0  0  0  0  0  0  0  0  0  0  0  0
   -1.2003    0.4831   -0.2713 H   0  0  0  0  0  0  0  0  0  0  0  0
   -2.0836   -0.7359   -2.1565 H   0  0  0  0  0  0  0  0  0  0  0  0
   -3.4243   -2.2024   -0.8927 H   0  0  0  0  0  0  0  0  0  0  0  0
   -4.2782   -0.0379   -0.5827 H   0  0  0  0  0  0  0  0  0  0  0  0
   -3.0043    0.4794    0.5570 H   0  0  0  0  0  0  0  0  0  0  0  0
   -4.6838   -1.9507    1.1717 H   0  0  0  0  0  0  0  0  0  0  0  0
   -5.1391   -0.1917    1.5666 H   0  0  0  0  0  0  0  0  0  0  0  0
   -3.0124    0.2350    2.5508 H   0  0  0  0  0  0  0  0  0  0  0  0
   -1.2087   -1.0150    2.2061 H   0  0  0  0  0  0  0  0  0  0  0  0
   -1.9762   -2.4185    2.9471 H   0  0  0  0  0  0  0  0  0  0  0  0
   -1.2353   -2.7791    0.5859 H   0  0  0  0  0  0  0  0  0  0  0  0
   -2.9081   -3.2660    1.0152 H   0  0  0  0  0  0  0  0  0  0  0  0
   -4.6108   -0.3952    4.1499 H   0  0  0  0  0  0  0  0  0  0  0  0
   -3.0256   -0.9782    4.6574 H   0  0  0  0  0  0  0  0  0  0  0  0
   -6.0963   -1.7407    3.0697 H   0  0  0  0  0  0  0  0  0  0  0  0
   -5.5466   -3.4580    2.7420 H   0  0  0  0  0  0  0  0  0  0  0  0
   -7.5321   -3.5357    3.8572 H   0  0  0  0  0  0  0  0  0  0  0  0
   -7.0907   -2.3960    5.1484 H   0  0  0  0  0  0  0  0  0  0  0  0
   -4.8698   -5.2421    3.9805 H   0  0  0  0  0  0  0  0  0  0  0  0
   -6.6190   -5.4752    3.5905 H   0  0  0  0  0  0  0  0  0  0  0  0
   -5.8660   -6.3182    5.0332 H   0  0  0  0  0  0  0  0  0  0  0  0
   -4.2461   -4.6877    5.9078 H   0  0  0  0  0  0  0  0  0  0  0  0
   -5.3555   -3.8367    7.0660 H   0  0  0  0  0  0  0  0  0  0  0  0
   -3.6290   -2.3231    6.1501 H   0  0  0  0  0  0  0  0  0  0  0  0
   -5.3096   -1.8122    5.9536 H   0  0  0  0  0  0  0  0  0  0  0  0
   -1.5617   -2.7493   -2.5204 H   0  0  0  0  0  0  0  0  0  0  0  0
    3.7701   -0.0611   -4.9142 H   0  0  0  0  0  0  0  0  0  0  0  0
    2.0801   -0.6265   -4.9804 H   0  0  0  0  0  0  0  0  0  0  0  0
    2.5225    1.1313   -5.3539 H   0  0  0  0  0  0  0  0  0  0  0  0
  1  2  1  0
  1  6  1  0
  2  3  1  0
  3  4  1  0
  3  7  1  0
  4  5  1  0
  5  6  1  0
  7  8  1  0
  7 12  1  0
  8  9  1  0
  9 10  1  0
 10 11  1  0
 11 12  1  0
 11 13  1  0
 13 14  1  0
 14 15  1  0
 14 19  1  0
 15 16  1  0
 15 37  1  0
 16 17  1  0
 17 18  1  0
 18 19  1  0
 18 20  1  0
 20 21  1  0
 21 22  1  0
 21 36  1  0
 22 23  1  0
 22 27  1  0
 23 24  1  0
 24 25  1  0
 25 26  1  0
 25 28  1  0
 26 27  1  0
 28 29  1  0
 29 30  1  0
 29 35  1  0
 30 31  1  0
 31 32  1  0
 32 33  1  0
 32 34  1  0
 34 35  1  0
  1 38  1  0
  1 39  1  0
  2 40  1  0
  2 41  1  0
  3 42  1  6
  4 43  1  0
  4 44  1  0
  5 45  1  0
  6 46  1  0
  6 47  1  0
  7 48  1  0
  8 49  1  0
  8 50  1  0
  9 51  1  0
  9 52  1  0
 10 53  1  0
 11 54  1  0
 12 55  1  0
 13 56  1  0
 14 57  1  6
 15 58  1  1
 16 59  1  0
 16 60  1  0
 17 61  1  0
 17 62  1  0
 18 63  1  0
 19 64  1  0
 19 65  1  0
 20 66  1  0
 21 67  1  0
 22 68  1  0
 23 69  1  0
 23 70  1  0
 24 71  1  0
 24 72  1  0
 25 73  1  0
 26 74  1  0
 26 75  1  0
 27 76  1  0
 27 77  1  0
 28 78  1  0
 28 79  1  0
 30 80  1  0
 30 81  1  0
 31 82  1  0
 31 83  1  0
 33 84  1  0
 33 85  1  0
 33 86  1  0
 34 87  1  0
 34 88  1  0
 35 89  1  0
 35 90  1  0
 36 91  1  0
 37 92  1  0
 37 93  1  0
 37 94  1  0
M  END
$$$$
SRC-ABL TYROSINE KINASE ANCESTOR
     RDKit          3D

 94 98  0  0  0  0  0  0  0  0999 V2000
   -1.4128    2.2565   -2.6176 C   0  0  0  0  0  0  0  0  0  0  0  0
   -0.8418    2.8777   -3.8760 C   0  0  0  0  0  0  0  0  0  0  0  0
   -0.5725    4.3587   -3.6579 C   0  0  1  0  0  0  0  0  0  0  0  0
   -1.9146    4.9738   -3.2606 C   0  0  0  0  0  0  0  0  0  0  0  0
   -2.1938    4.4615   -1.9184 N   0  0  0  0  0  0  0  0  0  0  0  0
   -2.5617    3.0693   -2.0832 C   0  0  0  0  0  0  0  0  0  0  0  0
    0.3174    4.4634   -2.4794 C   0  0  0  0  0  0  0  0  0  0  0  0
    0.7118    5.8701   -2.0856 C   0  0  0  0  0  0  0  0  0  0  0  0
    1.1698    5.7670   -0.6675 C   0  0  0  0  0  0  0  0  0  0  0  0
    1.8956    4.5914   -0.3494 N   0  0  0  0  0  0  0  0  0  0  0  0
    2.1849    3.6268   -1.2930 C   0  0  0  0  0  0  0  0  0  0  0  0
    1.5782    3.7645   -2.5934 N   0  0  0  0  0  0  0  0  0  0  0  0
    1.9554    2.2637   -0.8907 N   0  0  0  0  0  0  0  0  0  0  0  0
    2.6200    1.8070    0.2658 C   0  0  1  0  0  0  0  0  0  0  0  0
    1.7478    1.7935    1.4879 C   0  0  1  0  0  0  0  0  0  0  0  0
    2.7153    1.9514    2.6667 C   0  0  0  0  0  0  0  0  0  0  0  0
    3.9470    1.1402    2.3657 C   0  0  0  0  0  0  0  0  0  0  0  0
    3.6429   -0.0969    1.5035 C   0  0  0  0  0  0  0  0  0  0  0  0
    3.1454    0.3572    0.1449 C   0  0  0  0  0  0  0  0  0  0  0  0
    2.7912   -0.9870    2.2015 N   0  0  0  0  0  0  0  0  0  0  0  0
    2.5201   -2.2614    1.6578 C   0  0  0  0  0  0  0  0  0  0  0  0
    1.5923   -2.9855    2.6287 C   0  0  0  0  0  0  0  0  0  0  0  0
    0.3081   -2.2569    2.8306 C   0  0  0  0  0  0  0  0  0  0  0  0
   -0.6660   -2.3802    1.6704 C   0  0  0  0  0  0  0  0  0  0  0  0
   -0.8115   -3.7783    1.1902 C   0  0  0  0  0  0  0  0  0  0  0  0
   -0.1858   -4.6950    2.2461 C   0  0  0  0  0  0  0  0  0  0  0  0
    1.3158   -4.3999    2.2396 C   0  0  0  0  0  0  0  0  0  0  0  0
   -2.2080   -4.2044    0.9151 C   0  0  0  0  0  0  0  0  0  0  0  0
   -2.9367   -3.5065   -0.0682 N   0  0  0  0  0  0  0  0  0  0  0  0
   -3.3258   -2.1663    0.1697 C   0  0  0  0  0  0  0  0  0  0  0  0
   -4.4308   -1.8481   -0.8612 C   0  0  0  0  0  0  0  0  0  0  0  0
   -4.9620   -3.0704   -1.4266 N   0  0  0  0  0  0  0  0  0  0  0  0
   -5.7084   -3.8577   -0.4665 C   0  0  0  0  0  0  0  0  0  0  0  0
   -4.0063   -3.8463   -2.1564 C   0  0  0  0  0  0  0  0  0  0  0  0
   -2.6538   -3.8121   -1.4331 C   0  0  0  0  0  0  0  0  0  0  0  0
    2.0448   -2.3382    0.3813 O   0  0  0  0  0  0  0  0  0  0  0  0
    0.6161    2.7452    1.5325 C   0  0  0  0  0  0  0  0  0  0  0  0
   -1.8543    1.2674   -2.9263 H   0  0  0  0  0  0  0  0  0  0  0  0
   -0.6603    2.0081   -1.8568 H   0  0  0  0  0  0  0  0  0  0  0  0
   -1.5246    2.6785   -4.7169 H   0  0  0  0  0  0  0  0  0  0  0  0
    0.1704    2.4193   -4.0136 H   0  0  0  0  0  0  0  0  0  0  0  0
   -0.1765    4.7858   -4.5946 H   0  0  0  0  0  0  0  0  0  0  0  0
   -2.7091    4.7185   -3.9792 H   0  0  0  0  0  0  0  0  0  0  0  0
   -1.8116    6.0801   -3.2326 H   0  0  0  0  0  0  0  0  0  0  0  0
   -3.0054    4.9711   -1.5054 H   0  0  0  0  0  0  0  0  0  0  0  0
   -3.3873    2.9978   -2.8016 H   0  0  0  0  0  0  0  0  0  0  0  0
   -2.8821    2.6484   -1.1104 H   0  0  0  0  0  0  0  0  0  0  0  0
   -0.2073    4.0226   -1.6138 H   0  0  0  0  0  0  0  0  0  0  0  0
   -0.1396    6.5754   -2.1464 H   0  0  0  0  0  0  0  0  0  0  0  0
    1.5484    6.2243   -2.7247 H   0  0  0  0  0  0  0  0  0  0  0  0
    0.2631    5.8128   -0.0161 H   0  0  0  0  0  0  0  0  0  0  0  0
    1.7564    6.6973   -0.4073 H   0  0  0  0  0  0  0  0  0  0  0  0
    2.5383    4.6605    0.4427 H   0  0  0  0  0  0  0  0  0  0  0  0
    3.2998    3.6715   -1.5060 H   0  0  0  0  0  0  0  0  0  0  0  0
    2.1843    4.1312   -3.3321 H   0  0  0  0  0  0  0  0  0  0  0  0
    2.2413    1.6480   -1.6899 H   0  0  0  0  0  0  0  0  0  0  0  0
    3.4983    2.4814    0.4556 H   0  0  0  0  0  0  0  0  0  0  0  0
    1.2836    0.7596    1.5693 H   0  0  0  0  0  0  0  0  0  0  0  0
    2.2370    1.7129    3.6170 H   0  0  0  0  0  0  0  0  0  0  0  0
    2.9775    3.0292    2.6641 H   0  0  0  0  0  0  0  0  0  0  0  0
    4.3162    0.7551    3.3416 H   0  0  0  0  0  0  0  0  0  0  0  0
    4.7522    1.7121    1.8659 H   0  0  0  0  0  0  0  0  0  0  0  0
    4.6270   -0.5801    1.3417 H   0  0  0  0  0  0  0  0  0  0  0  0
    2.3026   -0.1992   -0.2555 H   0  0  0  0  0  0  0  0  0  0  0  0
    3.9752    0.4038   -0.5781 H   0  0  0  0  0  0  0  0  0  0  0  0
    3.1799   -1.1164    3.1595 H   0  0  0  0  0  0  0  0  0  0  0  0
    3.4676   -2.8687    1.6830 H   0  0  0  0  0  0  0  0  0  0  0  0
    2.1202   -2.9793    3.6167 H   0  0  0  0  0  0  0  0  0  0  0  0
   -0.1923   -2.6103    3.7441 H   0  0  0  0  0  0  0  0  0  0  0  0
    0.4782   -1.1613    2.9487 H   0  0  0  0  0  0  0  0  0  0  0  0
   -0.3686   -1.7160    0.8469 H   0  0  0  0  0  0  0  0  0  0  0  0
   -1.6406   -2.0277    2.0866 H   0  0  0  0  0  0  0  0  0  0  0  0
   -0.1789   -3.9447    0.2693 H   0  0  0  0  0  0  0  0  0  0  0  0
   -0.6511   -4.5302    3.2256 H   0  0  0  0  0  0  0  0  0  0  0  0
   -0.3267   -5.7328    1.9428 H   0  0  0  0  0  0  0  0  0  0  0  0
    1.7708   -5.1488    2.9311 H   0  0  0  0  0  0  0  0  0  0  0  0
    1.6680   -4.5667    1.2120 H   0  0  0  0  0  0  0  0  0  0  0  0
   -2.7874   -4.1019    1.8823 H   0  0  0  0  0  0  0  0  0  0  0  0
   -2.2513   -5.3008    0.6439 H   0  0  0  0  0  0  0  0  0  0  0  0
   -2.5609   -1.3963   -0.0099 H   0  0  0  0  0  0  0  0  0  0  0  0
   -3.8203   -2.1028    1.1661 H   0  0  0  0  0  0  0  0  0  0  0  0
   -5.2804   -1.3362   -0.3678 H   0  0  0  0  0  0  0  0  0  0  0  0
   -4.0281   -1.2589   -1.7071 H   0  0  0  0  0  0  0  0  0  0  0  0
   -6.1297   -3.1615    0.2795 H   0  0  0  0  0  0  0  0  0  0  0  0
   -6.5640   -4.3507   -0.9991 H   0  0  0  0  0  0  0  0  0  0  0  0
   -5.0454   -4.6343   -0.0693 H   0  0  0  0  0  0  0  0  0  0  0  0
   -3.8834   -3.4178   -3.1856 H   0  0  0  0  0  0  0  0  0  0  0  0
   -4.3096   -4.8990   -2.1976 H   0  0  0  0  0  0  0  0  0  0  0  0
   -2.1100   -2.9354   -1.8617 H   0  0  0  0  0  0  0  0  0  0  0  0
   -2.1005   -4.7448   -1.5619 H   0  0  0  0  0  0  0  0  0  0  0  0
    2.5546   -2.9152   -0.2431 H   0  0  0  0  0  0  0  0  0  0  0  0
   -0.1398    2.2933    2.2646 H   0  0  0  0  0  0  0  0  0  0  0  0
    0.0727    2.7735    0.5871 H   0  0  0  0  0  0  0  0  0  0  0  0
    0.8296    3.7311    2.0003 H   0  0  0  0  0  0  0  0  0  0  0  0
  1  2  1  0
  1  6  1  0
  2  3  1  0
  3  4  1  0
  3  7  1  0
  4  5  1  0
  5  6  1  0
  7  8  1  0
  7 12  1  0
  8  9  1  0
  9 10  1  0
 10 11  1  0
 11 12  1  0
 11 13  1  0
 13 14  1  0
 14 15  1  0
 14 19  1  0
 15 16  1  0
 15 37  1  0
 16 17  1  0
 17 18  1  0
 18 19  1  0
 18 20  1  0
 20 21  1  0
 21 22  1  0
 21 36  1  0
 22 23  1  0
 22 27  1  0
 23 24  1  0
 24 25  1  0
 25 26  1  0
 25 28  1  0
 26 27  1  0
 28 29  1  0
 29 30  1  0
 29 35  1  0
 30 31  1  0
 31 32  1  0
 32 33  1  0
 32 34  1  0
 34 35  1  0
  1 38  1  0
  1 39  1  0
  2 40  1  0
  2 41  1  0
  3 42  1  6
  4 43  1  0
  4 44  1  0
  5 45  1  0
  6 46  1  0
  6 47  1  0
  7 48  1  0
  8 49  1  0
  8 50  1  0
  9 51  1  0
  9 52  1  0
 10 53  1  0
 11 54  1  0
 12 55  1  0
 13 56  1  0
 14 57  1  1
 15 58  1  1
 16 59  1  0
 16 60  1  0
 17 61  1  0
 17 62  1  0
 18 63  1  0
 19 64  1  0
 19 65  1  0
 20 66  1  0
 21 67  1  0
 22 68  1  0
 23 69  1  0
 23 70  1  0
 24 71  1  0
 24 72  1  0
 25 73  1  0
 26 74  1  0
 26 75  1  0
 27 76  1  0
 27 77  1  0
 28 78  1  0
 28 79  1  0
 30 80  1  0
 30 81  1  0
 31 82  1  0
 31 83  1  0
 33 84  1  0
 33 85  1  0
 33 86  1  0
 34 87  1  0
 34 88  1  0
 35 89  1  0
 35 90  1  0
 36 91  1  0
 37 92  1  0
 37 93  1  0
 37 94  1  0
M  END
$$$$
SRC-ABL TYROSINE KINASE ANCESTOR
     RDKit          3D

 94 98  0  0  0  0  0  0  0  0999 V2000
    2.4873    7.0269   -4.4765 C   0  0  0  0  0  0  0  0  0  0  0  0
    2.8660    5.6087   -4.8221 C   0  0  0  0  0  0  0  0  0  0  0  0
    2.6237    4.7076   -3.6309 C   0  0  1  0  0  0  0  0  0  0  0  0
    1.5789    5.3339   -2.7659 C   0  0  0  0  0  0  0  0  0  0  0  0
    2.1296    6.5368   -2.1804 N   0  0  0  0  0  0  0  0  0  0  0  0
    2.9368    7.3115   -3.0770 C   0  0  0  0  0  0  0  0  0  0  0  0
    2.2729    3.3042   -4.0724 C   0  0  0  0  0  0  0  0  0  0  0  0
    3.4068    2.7546   -4.8624 C   0  0  0  0  0  0  0  0  0  0  0  0
    4.2813    1.9567   -3.9173 C   0  0  0  0  0  0  0  0  0  0  0  0
    3.4824    0.8445   -3.5168 N   0  0  0  0  0  0  0  0  0  0  0  0
    2.2310    1.1356   -2.9155 C   0  0  0  0  0  0  0  0  0  0  0  0
    1.7268    2.4695   -3.0805 N   0  0  0  0  0  0  0  0  0  0  0  0
    2.3217    0.9311   -1.5114 N   0  0  0  0  0  0  0  0  0  0  0  0
    2.6800   -0.3543   -1.0338 C   0  0  1  0  0  0  0  0  0  0  0  0
    2.7070   -0.2882    0.4577 C   0  0  1  0  0  0  0  0  0  0  0  0
    2.4808   -1.5408    1.1861 C   0  0  0  0  0  0  0  0  0  0  0  0
    1.4873   -2.4950    0.6166 C   0  0  0  0  0  0  0  0  0  0  0  0
    0.8456   -2.0739   -0.6631 C   0  0  0  0  0  0  0  0  0  0  0  0
    1.9433   -1.5129   -1.5381 C   0  0  0  0  0  0  0  0  0  0  0  0
   -0.3694   -1.4396   -0.6316 N   0  0  0  0  0  0  0  0  0  0  0  0
   -0.7299   -0.2807   -0.0044 C   0  0  0  0  0  0  0  0  0  0  0  0
   -2.2286   -0.0512   -0.2826 C   0  0  0  0  0  0  0  0  0  0  0  0
   -2.7494    1.1883    0.3495 C   0  0  0  0  0  0  0  0  0  0  0  0
   -3.2108    1.1092    1.7522 C   0  0  0  0  0  0  0  0  0  0  0  0
   -4.1324   -0.0597    2.0698 C   0  0  0  0  0  0  0  0  0  0  0  0
   -4.3530   -0.7904    0.8031 C   0  0  0  0  0  0  0  0  0  0  0  0
   -3.0420   -1.2558    0.1745 C   0  0  0  0  0  0  0  0  0  0  0  0
   -3.6056   -0.7958    3.2441 C   0  0  0  0  0  0  0  0  0  0  0  0
   -4.2701   -1.9068    3.7543 N   0  0  0  0  0  0  0  0  0  0  0  0
   -4.3341   -3.1366    3.1168 C   0  0  0  0  0  0  0  0  0  0  0  0
   -3.4980   -4.2317    3.7759 C   0  0  0  0  0  0  0  0  0  0  0  0
   -3.5262   -4.2083    5.2022 N   0  0  0  0  0  0  0  0  0  0  0  0
   -2.5439   -5.1725    5.6801 C   0  0  0  0  0  0  0  0  0  0  0  0
   -3.2358   -2.8842    5.7241 C   0  0  0  0  0  0  0  0  0  0  0  0
   -4.3208   -1.9771    5.1752 C   0  0  0  0  0  0  0  0  0  0  0  0
   -0.6076   -0.1768    1.3648 O   0  0  0  0  0  0  0  0  0  0  0  0
    4.0615    0.2638    0.9466 C   0  0  0  0  0  0  0  0  0  0  0  0
    1.3819    7.0985   -4.5084 H   0  0  0  0  0  0  0  0  0  0  0  0
    2.8710    7.7583   -5.2141 H   0  0  0  0  0  0  0  0  0  0  0  0
    3.9088    5.5698   -5.1749 H   0  0  0  0  0  0  0  0  0  0  0  0
    2.2066    5.2111   -5.6350 H   0  0  0  0  0  0  0  0  0  0  0  0
    3.5655    4.6616   -3.0296 H   0  0  0  0  0  0  0  0  0  0  0  0
    1.2885    4.6975   -1.9020 H   0  0  0  0  0  0  0  0  0  0  0  0
    0.6743    5.6115   -3.3084 H   0  0  0  0  0  0  0  0  0  0  0  0
    2.7634    6.3096   -1.3560 H   0  0  0  0  0  0  0  0  0  0  0  0
    4.0191    7.1855   -2.9277 H   0  0  0  0  0  0  0  0  0  0  0  0
    2.7052    8.3838   -2.8624 H   0  0  0  0  0  0  0  0  0  0  0  0
    1.4447    3.4504   -4.8314 H   0  0  0  0  0  0  0  0  0  0  0  0
    3.0255    2.0453   -5.6143 H   0  0  0  0  0  0  0  0  0  0  0  0
    3.9907    3.5431   -5.3356 H   0  0  0  0  0  0  0  0  0  0  0  0
    4.6929    2.5650   -3.0926 H   0  0  0  0  0  0  0  0  0  0  0  0
    5.1278    1.5652   -4.5250 H   0  0  0  0  0  0  0  0  0  0  0  0
    3.3954    0.2007   -4.3323 H   0  0  0  0  0  0  0  0  0  0  0  0
    1.4715    0.5034   -3.4205 H   0  0  0  0  0  0  0  0  0  0  0  0
    0.6893    2.5256   -2.9687 H   0  0  0  0  0  0  0  0  0  0  0  0
    2.9772    1.6371   -1.1293 H   0  0  0  0  0  0  0  0  0  0  0  0
    3.7666   -0.4788   -1.3449 H   0  0  0  0  0  0  0  0  0  0  0  0
    1.9978    0.4976    0.8442 H   0  0  0  0  0  0  0  0  0  0  0  0
    2.1186   -1.2794    2.2249 H   0  0  0  0  0  0  0  0  0  0  0  0
    3.4842   -2.0145    1.4047 H   0  0  0  0  0  0  0  0  0  0  0  0
    0.7307   -2.8558    1.3756 H   0  0  0  0  0  0  0  0  0  0  0  0
    2.0562   -3.4334    0.4254 H   0  0  0  0  0  0  0  0  0  0  0  0
    0.6091   -3.0593   -1.2040 H   0  0  0  0  0  0  0  0  0  0  0  0
    1.5953   -1.4425   -2.5895 H   0  0  0  0  0  0  0  0  0  0  0  0
    2.6799   -2.3768   -1.6082 H   0  0  0  0  0  0  0  0  0  0  0  0
   -0.8907   -1.5509   -1.5250 H   0  0  0  0  0  0  0  0  0  0  0  0
   -0.2307    0.6072   -0.4417 H   0  0  0  0  0  0  0  0  0  0  0  0
   -2.4016    0.0332   -1.3813 H   0  0  0  0  0  0  0  0  0  0  0  0
   -3.5794    1.5982   -0.2667 H   0  0  0  0  0  0  0  0  0  0  0  0
   -1.9472    1.9560    0.2931 H   0  0  0  0  0  0  0  0  0  0  0  0
   -3.8166    2.0473    1.9362 H   0  0  0  0  0  0  0  0  0  0  0  0
   -2.4233    1.1474    2.5104 H   0  0  0  0  0  0  0  0  0  0  0  0
   -5.1535    0.3256    2.3844 H   0  0  0  0  0  0  0  0  0  0  0  0
   -5.0685   -1.5975    0.7805 H   0  0  0  0  0  0  0  0  0  0  0  0
   -4.7531   -0.0281    0.0708 H   0  0  0  0  0  0  0  0  0  0  0  0
   -2.5153   -1.8494    0.9196 H   0  0  0  0  0  0  0  0  0  0  0  0
   -3.3254   -1.9279   -0.6614 H   0  0  0  0  0  0  0  0  0  0  0  0
   -3.5073    0.0012    4.0644 H   0  0  0  0  0  0  0  0  0  0  0  0
   -2.5218   -1.0878    3.1110 H   0  0  0  0  0  0  0  0  0  0  0  0
   -5.3966   -3.5164    3.1803 H   0  0  0  0  0  0  0  0  0  0  0  0
   -4.0664   -3.1890    2.0594 H   0  0  0  0  0  0  0  0  0  0  0  0
   -3.9222   -5.1963    3.4301 H   0  0  0  0  0  0  0  0  0  0  0  0
   -2.4480   -4.2013    3.4116 H   0  0  0  0  0  0  0  0  0  0  0  0
   -1.9108   -5.5903    4.8764 H   0  0  0  0  0  0  0  0  0  0  0  0
   -1.8174   -4.6763    6.3839 H   0  0  0  0  0  0  0  0  0  0  0  0
   -3.0009   -6.0151    6.2281 H   0  0  0  0  0  0  0  0  0  0  0  0
   -3.3498   -2.9254    6.8192 H   0  0  0  0  0  0  0  0  0  0  0  0
   -2.2350   -2.5370    5.4413 H   0  0  0  0  0  0  0  0  0  0  0  0
   -5.3010   -2.4541    5.4521 H   0  0  0  0  0  0  0  0  0  0  0  0
   -4.2274   -0.9731    5.6496 H   0  0  0  0  0  0  0  0  0  0  0  0
   -0.2362    0.6826    1.6715 H   0  0  0  0  0  0  0  0  0  0  0  0
    4.2795    1.1651    0.3521 H   0  0  0  0  0  0  0  0  0  0  0  0
    4.8637   -0.4707    0.8467 H   0  0  0  0  0  0  0  0  0  0  0  0
    3.9280    0.6107    2.0035 H   0  0  0  0  0  0  0  0  0  0  0  0
  1  2  1  0
  1  6  1  0
  2  3  1  0
  3  4  1  0
  3  7  1  0
  4  5  1  0
  5  6  1  0
  7  8  1  0
  7 12  1  0
  8  9  1  0
  9 10  1  0
 10 11  1  0
 11 12  1  0
 11 13  1  0
 13 14  1  0
 14 15  1  0
 14 19  1  0
 15 16  1  0
 15 37  1  0
 16 17  1  0
 17 18  1  0
 18 19  1  0
 18 20  1  0
 20 21  1  0
 21 22  1  0
 21 36  1  0
 22 23  1  0
 22 27  1  0
 23 24  1  0
 24 25  1  0
 25 26  1  0
 25 28  1  0
 26 27  1  0
 28 29  1  0
 29 30  1  0
 29 35  1  0
 30 31  1  0
 31 32  1  0
 32 33  1  0
 32 34  1  0
 34 35  1  0
  1 38  1  0
  1 39  1  0
  2 40  1  0
  2 41  1  0
  3 42  1  1
  4 43  1  0
  4 44  1  0
  5 45  1  0
  6 46  1  0
  6 47  1  0
  7 48  1  0
  8 49  1  0
  8 50  1  0
  9 51  1  0
  9 52  1  0
 10 53  1  0
 11 54  1  0
 12 55  1  0
 13 56  1  0
 14 57  1  6
 15 58  1  1
 16 59  1  0
 16 60  1  0
 17 61  1  0
 17 62  1  0
 18 63  1  0
 19 64  1  0
 19 65  1  0
 20 66  1  0
 21 67  1  0
 22 68  1  0
 23 69  1  0
 23 70  1  0
 24 71  1  0
 24 72  1  0
 25 73  1  0
 26 74  1  0
 26 75  1  0
 27 76  1  0
 27 77  1  0
 28 78  1  0
 28 79  1  0
 30 80  1  0
 30 81  1  0
 31 82  1  0
 31 83  1  0
 33 84  1  0
 33 85  1  0
 33 86  1  0
 34 87  1  0
 34 88  1  0
 35 89  1  0
 35 90  1  0
 36 91  1  0
 37 92  1  0
 37 93  1  0
 37 94  1  0
M  END
$$$$
SRC-ABL TYROSINE KINASE ANCESTOR
     RDKit          3D

 94 98  0  0  0  0  0  0  0  0999 V2000
   -3.4274    6.5702    1.2195 C   0  0  0  0  0  0  0  0  0  0  0  0
   -3.7430    5.1144    1.4863 C   0  0  0  0  0  0  0  0  0  0  0  0
   -2.5708    4.3149    1.0275 C   0  0  1  0  0  0  0  0  0  0  0  0
   -1.2946    4.6825    1.7311 C   0  0  0  0  0  0  0  0  0  0  0  0
   -1.0365    6.0846    1.5083 N   0  0  0  0  0  0  0  0  0  0  0  0
   -2.0301    6.7146    0.6812 C   0  0  0  0  0  0  0  0  0  0  0  0
   -2.8171    2.7990    1.1261 C   0  0  0  0  0  0  0  0  0  0  0  0
   -3.9759    2.4845    0.2406 C   0  0  0  0  0  0  0  0  0  0  0  0
   -5.1078    1.8652    1.0487 C   0  0  0  0  0  0  0  0  0  0  0  0
   -4.4633    0.7598    1.7793 N   0  0  0  0  0  0  0  0  0  0  0  0
   -3.6687    1.2873    2.8373 C   0  0  0  0  0  0  0  0  0  0  0  0
   -2.9804    2.5146    2.5083 N   0  0  0  0  0  0  0  0  0  0  0  0
   -2.7990    0.2899    3.3841 N   0  0  0  0  0  0  0  0  0  0  0  0
   -1.7568   -0.1765    2.5677 C   0  0  1  0  0  0  0  0  0  0  0  0
   -0.8597   -1.1860    3.2858 C   0  0  1  0  0  0  0  0  0  0  0  0
    0.5069   -1.0670    2.6633 C   0  0  0  0  0  0  0  0  0  0  0  0
    0.4197   -0.5938    1.2234 C   0  0  0  0  0  0  0  0  0  0  0  0
   -0.7918   -1.0781    0.5269 C   0  0  0  0  0  0  0  0  0  0  0  0
   -2.0996   -0.8387    1.2655 C   0  0  0  0  0  0  0  0  0  0  0  0
   -0.6541   -2.4506    0.1158 N   0  0  0  0  0  0  0  0  0  0  0  0
    0.2841   -2.5623   -0.9343 C   0  0  0  0  0  0  0  0  0  0  0  0
    0.4552   -3.9577   -1.4808 C   0  0  0  0  0  0  0  0  0  0  0  0
    0.9125   -4.9631   -0.4988 C   0  0  0  0  0  0  0  0  0  0  0  0
    2.3370   -5.0531   -0.1940 C   0  0  0  0  0  0  0  0  0  0  0  0
    3.3398   -4.5221   -1.1795 C   0  0  0  0  0  0  0  0  0  0  0  0
    2.8096   -3.5616   -2.1832 C   0  0  0  0  0  0  0  0  0  0  0  0
    1.4210   -3.9160   -2.6158 C   0  0  0  0  0  0  0  0  0  0  0  0
    4.4586   -3.9824   -0.3353 C   0  0  0  0  0  0  0  0  0  0  0  0
    5.5717   -3.4118   -0.7872 N   0  0  0  0  0  0  0  0  0  0  0  0
    6.4527   -2.9659    0.2673 C   0  0  0  0  0  0  0  0  0  0  0  0
    6.2148   -1.4614    0.3383 C   0  0  0  0  0  0  0  0  0  0  0  0
    6.4395   -0.8299   -0.9134 N   0  0  0  0  0  0  0  0  0  0  0  0
    5.8531    0.5178   -0.8270 C   0  0  0  0  0  0  0  0  0  0  0  0
    5.9111   -1.4637   -2.0749 C   0  0  0  0  0  0  0  0  0  0  0  0
    6.0423   -2.9941   -1.9965 C   0  0  0  0  0  0  0  0  0  0  0  0
   -0.1916   -1.7366   -1.9813 O   0  0  0  0  0  0  0  0  0  0  0  0
   -0.8569   -0.9530    4.7759 C   0  0  0  0  0  0  0  0  0  0  0  0
   -4.1272    6.9841    0.4634 H   0  0  0  0  0  0  0  0  0  0  0  0
   -3.4715    7.1381    2.1857 H   0  0  0  0  0  0  0  0  0  0  0  0
   -3.8461    4.9520    2.5859 H   0  0  0  0  0  0  0  0  0  0  0  0
   -4.6447    4.7718    0.9524 H   0  0  0  0  0  0  0  0  0  0  0  0
   -2.4202    4.5087   -0.0632 H   0  0  0  0  0  0  0  0  0  0  0  0
   -1.3751    4.5321    2.8239 H   0  0  0  0  0  0  0  0  0  0  0  0
   -0.4680    4.0934    1.2947 H   0  0  0  0  0  0  0  0  0  0  0  0
   -0.1060    6.2718    1.0477 H   0  0  0  0  0  0  0  0  0  0  0  0
   -1.8023    7.8200    0.7227 H   0  0  0  0  0  0  0  0  0  0  0  0
   -1.9577    6.4650   -0.3921 H   0  0  0  0  0  0  0  0  0  0  0  0
   -1.8640    2.3736    0.6939 H   0  0  0  0  0  0  0  0  0  0  0  0
   -4.3188    3.3108   -0.4088 H   0  0  0  0  0  0  0  0  0  0  0  0
   -3.6875    1.6703   -0.4914 H   0  0  0  0  0  0  0  0  0  0  0  0
   -5.5151    2.6036    1.7668 H   0  0  0  0  0  0  0  0  0  0  0  0
   -5.8355    1.4611    0.3414 H   0  0  0  0  0  0  0  0  0  0  0  0
   -5.2380    0.1549    2.0773 H   0  0  0  0  0  0  0  0  0  0  0  0
   -4.4114    1.5805    3.6525 H   0  0  0  0  0  0  0  0  0  0  0  0
   -2.0351    2.4643    2.9474 H   0  0  0  0  0  0  0  0  0  0  0  0
   -3.2962   -0.4407    3.9022 H   0  0  0  0  0  0  0  0  0  0  0  0
   -1.1262    0.7032    2.2904 H   0  0  0  0  0  0  0  0  0  0  0  0
   -1.2969   -2.1839    3.0945 H   0  0  0  0  0  0  0  0  0  0  0  0
    0.9867   -2.0878    2.6605 H   0  0  0  0  0  0  0  0  0  0  0  0
    1.1413   -0.3990    3.2385 H   0  0  0  0  0  0  0  0  0  0  0  0
    0.5386    0.5323    1.1732 H   0  0  0  0  0  0  0  0  0  0  0  0
    1.3311   -0.9551    0.7351 H   0  0  0  0  0  0  0  0  0  0  0  0
   -0.8837   -0.4260   -0.4079 H   0  0  0  0  0  0  0  0  0  0  0  0
   -2.8070   -0.2678    0.6359 H   0  0  0  0  0  0  0  0  0  0  0  0
   -2.5094   -1.8433    1.5256 H   0  0  0  0  0  0  0  0  0  0  0  0
   -1.6025   -2.8044   -0.1350 H   0  0  0  0  0  0  0  0  0  0  0  0
    1.2888   -2.1682   -0.7262 H   0  0  0  0  0  0  0  0  0  0  0  0
   -0.5333   -4.2608   -1.8851 H   0  0  0  0  0  0  0  0  0  0  0  0
    0.5511   -5.9676   -0.8784 H   0  0  0  0  0  0  0  0  0  0  0  0
    0.3078   -4.8299    0.4245 H   0  0  0  0  0  0  0  0  0  0  0  0
    2.6169   -6.1369   -0.0187 H   0  0  0  0  0  0  0  0  0  0  0  0
    2.4927   -4.6301    0.8457 H   0  0  0  0  0  0  0  0  0  0  0  0
    3.8022   -5.3767   -1.7575 H   0  0  0  0  0  0  0  0  0  0  0  0
    3.3968   -3.6462   -3.1374 H   0  0  0  0  0  0  0  0  0  0  0  0
    2.9349   -2.5108   -1.8783 H   0  0  0  0  0  0  0  0  0  0  0  0
    1.0534   -3.2436   -3.4159 H   0  0  0  0  0  0  0  0  0  0  0  0
    1.4813   -4.9723   -3.0119 H   0  0  0  0  0  0  0  0  0  0  0  0
    4.7352   -4.8568    0.3318 H   0  0  0  0  0  0  0  0  0  0  0  0
    3.9232   -3.2967    0.3893 H   0  0  0  0  0  0  0  0  0  0  0  0
    6.2062   -3.4579    1.2048 H   0  0  0  0  0  0  0  0  0  0  0  0
    7.4874   -3.1224   -0.0751 H   0  0  0  0  0  0  0  0  0  0  0  0
    5.1759   -1.3596    0.7199 H   0  0  0  0  0  0  0  0  0  0  0  0
    6.9052   -1.0058    1.0778 H   0  0  0  0  0  0  0  0  0  0  0  0
    5.5279    0.7621    0.2139 H   0  0  0  0  0  0  0  0  0  0  0  0
    6.6298    1.2674   -1.0861 H   0  0  0  0  0  0  0  0  0  0  0  0
    4.9373    0.5814   -1.4509 H   0  0  0  0  0  0  0  0  0  0  0  0
    6.5354   -1.1640   -2.9482 H   0  0  0  0  0  0  0  0  0  0  0  0
    4.8795   -1.1581   -2.3140 H   0  0  0  0  0  0  0  0  0  0  0  0
    7.1762   -3.0963   -1.9591 H   0  0  0  0  0  0  0  0  0  0  0  0
    5.7704   -3.4666   -2.9321 H   0  0  0  0  0  0  0  0  0  0  0  0
   -0.7253   -2.3067   -2.5598 H   0  0  0  0  0  0  0  0  0  0  0  0
   -0.0160   -1.5457    5.1972 H   0  0  0  0  0  0  0  0  0  0  0  0
   -1.7786   -1.3384    5.2104 H   0  0  0  0  0  0  0  0  0  0  0  0
   -0.6360    0.1022    5.0388 H   0  0  0  0  0  0  0  0  0  0  0  0
  1  2  1  0
  1  6  1  0
  2  3  1  0
  3  4  1  0
  3  7  1  0
  4  5  1  0
  5  6  1  0
  7  8  1  0
  7 12  1  0
  8  9  1  0
  9 10  1  0
 10 11  1  0
 11 12  1  0
 11 13  1  0
 13 14  1  0
 14 15  1  0
 14 19  1  0
 15 16  1  0
 15 37  1  0
 16 17  1  0
 17 18  1  0
 18 19  1  0
 18 20  1  0
 20 21  1  0
 21 22  1  0
 21 36  1  0
 22 23  1  0
 22 27  1  0
 23 24  1  0
 24 25  1  0
 25 26  1  0
 25 28  1  0
 26 27  1  0
 28 29  1  0
 29 30  1  0
 29 35  1  0
 30 31  1  0
 31 32  1  0
 32 33  1  0
 32 34  1  0
 34 35  1  0
  1 38  1  0
  1 39  1  0
  2 40  1  0
  2 41  1  0
  3 42  1  6
  4 43  1  0
  4 44  1  0
  5 45  1  0
  6 46  1  0
  6 47  1  0
  7 48  1  0
  8 49  1  0
  8 50  1  0
  9 51  1  0
  9 52  1  0
 10 53  1  0
 11 54  1  0
 12 55  1  0
 13 56  1  0
 14 57  1  6
 15 58  1  1
 16 59  1  0
 16 60  1  0
 17 61  1  0
 17 62  1  0
 18 63  1  0
 19 64  1  0
 19 65  1  0
 20 66  1  0
 21 67  1  0
 22 68  1  0
 23 69  1  0
 23 70  1  0
 24 71  1  0
 24 72  1  0
 25 73  1  0
 26 74  1  0
 26 75  1  0
 27 76  1  0
 27 77  1  0
 28 78  1  0
 28 79  1  0
 30 80  1  0
 30 81  1  0
 31 82  1  0
 31 83  1  0
 33 84  1  0
 33 85  1  0
 33 86  1  0
 34 87  1  0
 34 88  1  0
 35 89  1  0
 35 90  1  0
 36 91  1  0
 37 92  1  0
 37 93  1  0
 37 94  1  0
M  END
$$$$
SRC-ABL TYROSINE KINASE ANCESTOR
     RDKit          3D

 94 98  0  0  0  0  0  0  0  0999 V2000
    1.9395   -4.6938   -2.6994 C   0  0  0  0  0  0  0  0  0  0  0  0
    0.7586   -5.4197   -2.0917 C   0  0  0  0  0  0  0  0  0  0  0  0
    0.9775   -5.8821   -0.6939 C   0  0  1  0  0  0  0  0  0  0  0  0
    2.3393   -6.4525   -0.4729 C   0  0  0  0  0  0  0  0  0  0  0  0
    3.1547   -6.5302   -1.6535 N   0  0  0  0  0  0  0  0  0  0  0  0
    3.2514   -5.2028   -2.1986 C   0  0  0  0  0  0  0  0  0  0  0  0
    0.6165   -4.8715    0.3748 C   0  0  0  0  0  0  0  0  0  0  0  0
   -0.8504   -4.4989    0.3424 C   0  0  0  0  0  0  0  0  0  0  0  0
   -1.0926   -3.5311    1.4774 C   0  0  0  0  0  0  0  0  0  0  0  0
    0.0759   -3.2549    2.2476 N   0  0  0  0  0  0  0  0  0  0  0  0
    1.2170   -2.8718    1.4663 C   0  0  0  0  0  0  0  0  0  0  0  0
    1.3515   -3.6368    0.2230 N   0  0  0  0  0  0  0  0  0  0  0  0
    1.0431   -1.4565    1.1628 N   0  0  0  0  0  0  0  0  0  0  0  0
    0.9775   -0.6374    2.3247 C   0  0  1  0  0  0  0  0  0  0  0  0
    2.2474   -0.5779    3.1003 C   0  0  1  0  0  0  0  0  0  0  0  0
    3.2759    0.1030    2.2290 C   0  0  0  0  0  0  0  0  0  0  0  0
    2.7875    1.2711    1.4641 C   0  0  0  0  0  0  0  0  0  0  0  0
    1.4273    1.7732    1.7646 C   0  0  0  0  0  0  0  0  0  0  0  0
    0.4146    0.7288    2.0811 C   0  0  0  0  0  0  0  0  0  0  0  0
    0.8527    2.6497    0.7656 N   0  0  0  0  0  0  0  0  0  0  0  0
    1.5877    3.8239    0.4675 C   0  0  0  0  0  0  0  0  0  0  0  0
    0.9015    4.7388   -0.5278 C   0  0  0  0  0  0  0  0  0  0  0  0
    0.6616    4.0392   -1.8363 C   0  0  0  0  0  0  0  0  0  0  0  0
   -0.6967    4.3618   -2.4175 C   0  0  0  0  0  0  0  0  0  0  0  0
   -1.6847    3.8477   -1.3299 C   0  0  0  0  0  0  0  0  0  0  0  0
   -1.6294    4.9137   -0.2961 C   0  0  0  0  0  0  0  0  0  0  0  0
   -0.2700    5.4652    0.0138 C   0  0  0  0  0  0  0  0  0  0  0  0
   -3.0348    3.6583   -1.9222 C   0  0  0  0  0  0  0  0  0  0  0  0
   -3.9990    3.1796   -1.0634 N   0  0  0  0  0  0  0  0  0  0  0  0
   -4.5770    3.8797   -0.0103 C   0  0  0  0  0  0  0  0  0  0  0  0
   -4.5621    2.9745    1.2264 C   0  0  0  0  0  0  0  0  0  0  0  0
   -4.6854    1.6128    0.8114 N   0  0  0  0  0  0  0  0  0  0  0  0
   -3.4065    0.9617    0.5924 C   0  0  0  0  0  0  0  0  0  0  0  0
   -5.4761    1.4563   -0.3925 C   0  0  0  0  0  0  0  0  0  0  0  0
   -4.8686    2.1465   -1.5887 C   0  0  0  0  0  0  0  0  0  0  0  0
    2.8032    3.4713   -0.1218 O   0  0  0  0  0  0  0  0  0  0  0  0
    2.0839    0.1571    4.4101 C   0  0  0  0  0  0  0  0  0  0  0  0
    1.9103   -4.9068   -3.8046 H   0  0  0  0  0  0  0  0  0  0  0  0
    1.8217   -3.5975   -2.5751 H   0  0  0  0  0  0  0  0  0  0  0  0
   -0.1399   -4.8204   -2.2338 H   0  0  0  0  0  0  0  0  0  0  0  0
    0.6042   -6.3505   -2.7116 H   0  0  0  0  0  0  0  0  0  0  0  0
    0.2584   -6.7420   -0.5359 H   0  0  0  0  0  0  0  0  0  0  0  0
    2.9034   -5.8127    0.2663 H   0  0  0  0  0  0  0  0  0  0  0  0
    2.3170   -7.4628    0.0320 H   0  0  0  0  0  0  0  0  0  0  0  0
    2.8476   -7.2521   -2.3294 H   0  0  0  0  0  0  0  0  0  0  0  0
    4.0735   -5.0911   -2.9471 H   0  0  0  0  0  0  0  0  0  0  0  0
    3.5627   -4.5441   -1.3466 H   0  0  0  0  0  0  0  0  0  0  0  0
    0.8721   -5.3286    1.3530 H   0  0  0  0  0  0  0  0  0  0  0  0
   -1.0838   -4.0198   -0.6380 H   0  0  0  0  0  0  0  0  0  0  0  0
   -1.4753   -5.4098    0.4982 H   0  0  0  0  0  0  0  0  0  0  0  0
   -1.4239   -2.5641    1.0310 H   0  0  0  0  0  0  0  0  0  0  0  0
   -1.9215   -3.9103    2.0937 H   0  0  0  0  0  0  0  0  0  0  0  0
    0.3190   -4.0824    2.8211 H   0  0  0  0  0  0  0  0  0  0  0  0
    2.1566   -3.0448    2.0269 H   0  0  0  0  0  0  0  0  0  0  0  0
    0.8042   -3.0568   -0.4834 H   0  0  0  0  0  0  0  0  0  0  0  0
    1.6827   -1.1337    0.4166 H   0  0  0  0  0  0  0  0  0  0  0  0
    0.2380   -1.1613    3.0113 H   0  0  0  0  0  0  0  0  0  0  0  0
    2.6125   -1.5899    3.3161 H   0  0  0  0  0  0  0  0  0  0  0  0
    4.0813    0.4284    2.9246 H   0  0  0  0  0  0  0  0  0  0  0  0
    3.7706   -0.6716    1.5884 H   0  0  0  0  0  0  0  0  0  0  0  0
    3.5078    2.1275    1.6307 H   0  0  0  0  0  0  0  0  0  0  0  0
    2.9027    1.0457    0.3823 H   0  0  0  0  0  0  0  0  0  0  0  0
    1.5315    2.4366    2.6704 H   0  0  0  0  0  0  0  0  0  0  0  0
   -0.3230    0.6725    1.2527 H   0  0  0  0  0  0  0  0  0  0  0  0
   -0.1663    1.0327    2.9711 H   0  0  0  0  0  0  0  0  0  0  0  0
   -0.1274    2.8267    1.0768 H   0  0  0  0  0  0  0  0  0  0  0  0
    1.7245    4.4385    1.3866 H   0  0  0  0  0  0  0  0  0  0  0  0
    1.6834    5.5152   -0.7571 H   0  0  0  0  0  0  0  0  0  0  0  0
    0.6962    2.9455   -1.6485 H   0  0  0  0  0  0  0  0  0  0  0  0
    1.4234    4.2568   -2.6100 H   0  0  0  0  0  0  0  0  0  0  0  0
   -0.8265    3.7504   -3.3141 H   0  0  0  0  0  0  0  0  0  0  0  0
   -0.7946    5.4365   -2.5543 H   0  0  0  0  0  0  0  0  0  0  0  0
   -1.2642    2.8660   -1.0367 H   0  0  0  0  0  0  0  0  0  0  0  0
   -2.2963    5.7282   -0.6507 H   0  0  0  0  0  0  0  0  0  0  0  0
   -2.0893    4.5065    0.6257 H   0  0  0  0  0  0  0  0  0  0  0  0
   -0.1494    5.4779    1.1206 H   0  0  0  0  0  0  0  0  0  0  0  0
   -0.2608    6.5417   -0.2644 H   0  0  0  0  0  0  0  0  0  0  0  0
   -3.3518    4.6067   -2.4768 H   0  0  0  0  0  0  0  0  0  0  0  0
   -2.9264    2.9318   -2.7952 H   0  0  0  0  0  0  0  0  0  0  0  0
   -4.3258    4.9120    0.1920 H   0  0  0  0  0  0  0  0  0  0  0  0
   -5.7083    3.9296   -0.2442 H   0  0  0  0  0  0  0  0  0  0  0  0
   -3.5796    3.0856    1.7086 H   0  0  0  0  0  0  0  0  0  0  0  0
   -5.3299    3.2894    1.9594 H   0  0  0  0  0  0  0  0  0  0  0  0
   -3.3907    0.0651    1.2487 H   0  0  0  0  0  0  0  0  0  0  0  0
   -2.5345    1.6248    0.7598 H   0  0  0  0  0  0  0  0  0  0  0  0
   -3.3111    0.5491   -0.4504 H   0  0  0  0  0  0  0  0  0  0  0  0
   -6.4859    1.8756   -0.1447 H   0  0  0  0  0  0  0  0  0  0  0  0
   -5.5547    0.3458   -0.5598 H   0  0  0  0  0  0  0  0  0  0  0  0
   -4.3138    1.4453   -2.2375 H   0  0  0  0  0  0  0  0  0  0  0  0
   -5.6448    2.6289   -2.2113 H   0  0  0  0  0  0  0  0  0  0  0  0
    2.7608    3.5515   -1.1070 H   0  0  0  0  0  0  0  0  0  0  0  0
    1.2483    0.8561    4.4456 H   0  0  0  0  0  0  0  0  0  0  0  0
    3.0128    0.7256    4.6641 H   0  0  0  0  0  0  0  0  0  0  0  0
    1.9041   -0.6061    5.2063 H   0  0  0  0  0  0  0  0  0  0  0  0
  1  2  1  0
  1  6  1  0
  2  3  1  0
  3  4  1  0
  3  7  1  0
  4  5  1  0
  5  6  1  0
  7  8  1  0
  7 12  1  0
  8  9  1  0
  9 10  1  0
 10 11  1  0
 11 12  1  0
 11 13  1  0
 13 14  1  0
 14 15  1  0
 14 19  1  0
 15 16  1  0
 15 37  1  0
 16 17  1  0
 17 18  1  0
 18 19  1  0
 18 20  1  0
 20 21  1  0
 21 22  1  0
 21 36  1  0
 22 23  1  0
 22 27  1  0
 23 24  1  0
 24 25  1  0
 25 26  1  0
 25 28  1  0
 26 27  1  0
 28 29  1  0
 29 30  1  0
 29 35  1  0
 30 31  1  0
 31 32  1  0
 32 33  1  0
 32 34  1  0
 34 35  1  0
  1 38  1  0
  1 39  1  0
  2 40  1  0
  2 41  1  0
  3 42  1  1
  4 43  1  0
  4 44  1  0
  5 45  1  0
  6 46  1  0
  6 47  1  0
  7 48  1  0
  8 49  1  0
  8 50  1  0
  9 51  1  0
  9 52  1  0
 10 53  1  0
 11 54  1  0
 12 55  1  0
 13 56  1  0
 14 57  1  1
 15 58  1  1
 16 59  1  0
 16 60  1  0
 17 61  1  0
 17 62  1  0
 18 63  1  0
 19 64  1  0
 19 65  1  0
 20 66  1  0
 21 67  1  0
 22 68  1  0
 23 69  1  0
 23 70  1  0
 24 71  1  0
 24 72  1  0
 25 73  1  0
 26 74  1  0
 26 75  1  0
 27 76  1  0
 27 77  1  0
 28 78  1  0
 28 79  1  0
 30 80  1  0
 30 81  1  0
 31 82  1  0
 31 83  1  0
 33 84  1  0
 33 85  1  0
 33 86  1  0
 34 87  1  0
 34 88  1  0
 35 89  1  0
 35 90  1  0
 36 91  1  0
 37 92  1  0
 37 93  1  0
 37 94  1  0
M  END
$$$$
SRC-ABL TYROSINE KINASE ANCESTOR
     RDKit          3D

 94 98  0  0  0  0  0  0  0  0999 V2000
   -1.4787    6.8346   -1.5401 C   0  0  0  0  0  0  0  0  0  0  0  0
   -0.4312    5.8033   -1.1822 C   0  0  0  0  0  0  0  0  0  0  0  0
   -0.5737    4.5989   -2.0870 C   0  0  1  0  0  0  0  0  0  0  0  0
   -1.1548    4.9399   -3.4309 C   0  0  0  0  0  0  0  0  0  0  0  0
   -2.4610    5.5478   -3.3310 N   0  0  0  0  0  0  0  0  0  0  0  0
   -2.7126    6.0798   -2.0044 C   0  0  0  0  0  0  0  0  0  0  0  0
    0.7878    3.9549   -2.3318 C   0  0  0  0  0  0  0  0  0  0  0  0
    0.5796    2.7808   -3.2256 C   0  0  0  0  0  0  0  0  0  0  0  0
    1.6851    1.7558   -3.1273 C   0  0  0  0  0  0  0  0  0  0  0  0
    2.1938    1.6167   -1.7741 N   0  0  0  0  0  0  0  0  0  0  0  0
    1.2090    2.1722   -0.8799 C   0  0  0  0  0  0  0  0  0  0  0  0
    1.3233    3.6329   -1.0454 N   0  0  0  0  0  0  0  0  0  0  0  0
    1.5119    1.8738    0.4556 N   0  0  0  0  0  0  0  0  0  0  0  0
    1.6126    0.5330    0.8867 C   0  0  1  0  0  0  0  0  0  0  0  0
    1.8816    0.5796    2.3719 C   0  0  1  0  0  0  0  0  0  0  0  0
    1.0517   -0.4318    3.0868 C   0  0  0  0  0  0  0  0  0  0  0  0
   -0.4015   -0.0968    2.8120 C   0  0  0  0  0  0  0  0  0  0  0  0
   -0.7476   -0.1999    1.3672 C   0  0  0  0  0  0  0  0  0  0  0  0
    0.4595   -0.3206    0.4781 C   0  0  0  0  0  0  0  0  0  0  0  0
   -1.6942   -1.2093    1.0211 N   0  0  0  0  0  0  0  0  0  0  0  0
   -2.9828   -1.1071    1.5865 C   0  0  0  0  0  0  0  0  0  0  0  0
   -3.9778   -2.1690    1.2388 C   0  0  0  0  0  0  0  0  0  0  0  0
   -4.2699   -2.2931   -0.2073 C   0  0  0  0  0  0  0  0  0  0  0  0
   -3.3169   -3.1651   -0.9847 C   0  0  0  0  0  0  0  0  0  0  0  0
   -2.8385   -4.3670   -0.3246 C   0  0  0  0  0  0  0  0  0  0  0  0
   -2.8700   -4.3963    1.1756 C   0  0  0  0  0  0  0  0  0  0  0  0
   -3.8024   -3.4934    1.8655 C   0  0  0  0  0  0  0  0  0  0  0  0
   -1.4955   -4.8892   -0.7302 C   0  0  0  0  0  0  0  0  0  0  0  0
   -1.2443   -5.2935   -2.0395 N   0  0  0  0  0  0  0  0  0  0  0  0
   -1.1369   -4.3975   -3.1137 C   0  0  0  0  0  0  0  0  0  0  0  0
    0.1944   -3.6547   -3.0297 C   0  0  0  0  0  0  0  0  0  0  0  0
    1.2689   -4.6158   -3.1145 N   0  0  0  0  0  0  0  0  0  0  0  0
    2.5392   -3.9471   -2.9401 C   0  0  0  0  0  0  0  0  0  0  0  0
    1.1461   -5.6315   -2.1097 C   0  0  0  0  0  0  0  0  0  0  0  0
   -0.2023   -6.3216   -2.1369 C   0  0  0  0  0  0  0  0  0  0  0  0
   -3.5505    0.1787    1.4071 O   0  0  0  0  0  0  0  0  0  0  0  0
    3.3333    0.2898    2.6451 C   0  0  0  0  0  0  0  0  0  0  0  0
   -1.1073    7.5302   -2.3226 H   0  0  0  0  0  0  0  0  0  0  0  0
   -1.7788    7.4174   -0.6299 H   0  0  0  0  0  0  0  0  0  0  0  0
    0.5937    6.2435   -1.2054 H   0  0  0  0  0  0  0  0  0  0  0  0
   -0.6153    5.5274   -0.1023 H   0  0  0  0  0  0  0  0  0  0  0  0
   -1.2407    3.8676   -1.5853 H   0  0  0  0  0  0  0  0  0  0  0  0
   -1.3060    3.9673   -3.9549 H   0  0  0  0  0  0  0  0  0  0  0  0
   -0.4226    5.5205   -4.0038 H   0  0  0  0  0  0  0  0  0  0  0  0
   -2.4477    6.3893   -3.9832 H   0  0  0  0  0  0  0  0  0  0  0  0
   -3.6130    6.7088   -2.0251 H   0  0  0  0  0  0  0  0  0  0  0  0
   -2.8418    5.2162   -1.3004 H   0  0  0  0  0  0  0  0  0  0  0  0
    1.4518    4.7273   -2.8201 H   0  0  0  0  0  0  0  0  0  0  0  0
   -0.4158    2.3021   -3.1279 H   0  0  0  0  0  0  0  0  0  0  0  0
    0.6125    3.1414   -4.2937 H   0  0  0  0  0  0  0  0  0  0  0  0
    1.2131    0.7656   -3.3828 H   0  0  0  0  0  0  0  0  0  0  0  0
    2.4844    1.9041   -3.8809 H   0  0  0  0  0  0  0  0  0  0  0  0
    2.3938    0.6423   -1.5216 H   0  0  0  0  0  0  0  0  0  0  0  0
    0.1770    1.9490   -1.2087 H   0  0  0  0  0  0  0  0  0  0  0  0
    2.3023    3.9588   -0.8969 H   0  0  0  0  0  0  0  0  0  0  0  0
    1.9841    2.5852    1.0153 H   0  0  0  0  0  0  0  0  0  0  0  0
    2.5464    0.1059    0.4120 H   0  0  0  0  0  0  0  0  0  0  0  0
    1.6118    1.5739    2.8105 H   0  0  0  0  0  0  0  0  0  0  0  0
    1.3167   -1.4757    2.9398 H   0  0  0  0  0  0  0  0  0  0  0  0
    1.1860   -0.2329    4.1839 H   0  0  0  0  0  0  0  0  0  0  0  0
   -0.5457    0.9347    3.1696 H   0  0  0  0  0  0  0  0  0  0  0  0
   -0.9831   -0.7953    3.4388 H   0  0  0  0  0  0  0  0  0  0  0  0
   -1.2270    0.7755    1.0650 H   0  0  0  0  0  0  0  0  0  0  0  0
    0.7986   -1.3760    0.5214 H   0  0  0  0  0  0  0  0  0  0  0  0
    0.2363   -0.0871   -0.5790 H   0  0  0  0  0  0  0  0  0  0  0  0
   -1.3155   -2.1196    0.8008 H   0  0  0  0  0  0  0  0  0  0  0  0
   -2.8533   -1.1747    2.7080 H   0  0  0  0  0  0  0  0  0  0  0  0
   -4.9586   -1.7694    1.6998 H   0  0  0  0  0  0  0  0  0  0  0  0
   -5.3088   -2.6758   -0.3285 H   0  0  0  0  0  0  0  0  0  0  0  0
   -4.2845   -1.2674   -0.6346 H   0  0  0  0  0  0  0  0  0  0  0  0
   -3.8545   -3.3806   -1.9425 H   0  0  0  0  0  0  0  0  0  0  0  0
   -2.4737   -2.5029   -1.2574 H   0  0  0  0  0  0  0  0  0  0  0  0
   -3.5572   -5.2091   -0.6258 H   0  0  0  0  0  0  0  0  0  0  0  0
   -1.8451   -4.2657    1.6182 H   0  0  0  0  0  0  0  0  0  0  0  0
   -3.1339   -5.4424    1.5411 H   0  0  0  0  0  0  0  0  0  0  0  0
   -4.8103   -3.9483    2.0451 H   0  0  0  0  0  0  0  0  0  0  0  0
   -3.3951   -3.3027    2.9097 H   0  0  0  0  0  0  0  0  0  0  0  0
   -1.1439   -5.6773    0.0259 H   0  0  0  0  0  0  0  0  0  0  0  0
   -0.7390   -4.0534   -0.4974 H   0  0  0  0  0  0  0  0  0  0  0  0
   -1.0963   -5.0024   -4.0722 H   0  0  0  0  0  0  0  0  0  0  0  0
   -1.9583   -3.6896   -3.1690 H   0  0  0  0  0  0  0  0  0  0  0  0
    0.2377   -3.0934   -2.0849 H   0  0  0  0  0  0  0  0  0  0  0  0
    0.2109   -2.9561   -3.8681 H   0  0  0  0  0  0  0  0  0  0  0  0
    3.2575   -4.6427   -2.4212 H   0  0  0  0  0  0  0  0  0  0  0  0
    3.0100   -3.6234   -3.8875 H   0  0  0  0  0  0  0  0  0  0  0  0
    2.4709   -3.0734   -2.2710 H   0  0  0  0  0  0  0  0  0  0  0  0
    1.8952   -6.4396   -2.2858 H   0  0  0  0  0  0  0  0  0  0  0  0
    1.2641   -5.2351   -1.0644 H   0  0  0  0  0  0  0  0  0  0  0  0
   -0.2702   -7.0231   -1.3064 H   0  0  0  0  0  0  0  0  0  0  0  0
   -0.3418   -6.8433   -3.0997 H   0  0  0  0  0  0  0  0  0  0  0  0
   -3.2179    0.7971    2.0912 H   0  0  0  0  0  0  0  0  0  0  0  0
    3.4772   -0.8101    2.5029 H   0  0  0  0  0  0  0  0  0  0  0  0
    4.0423    0.8537    2.0340 H   0  0  0  0  0  0  0  0  0  0  0  0
    3.5278    0.5566    3.7024 H   0  0  0  0  0  0  0  0  0  0  0  0
  1  2  1  0
  1  6  1  0
  2  3  1  0
  3  4  1  0
  3  7  1  0
  4  5  1  0
  5  6  1  0
  7  8  1  0
  7 12  1  0
  8  9  1  0
  9 10  1  0
 10 11  1  0
 11 12  1  0
 11 13  1  0
 13 14  1  0
 14 15  1  0
 14 19  1  0
 15 16  1  0
 15 37  1  0
 16 17  1  0
 17 18  1  0
 18 19  1  0
 18 20  1  0
 20 21  1  0
 21 22  1  0
 21 36  1  0
 22 23  1  0
 22 27  1  0
 23 24  1  0
 24 25  1  0
 25 26  1  0
 25 28  1  0
 26 27  1  0
 28 29  1  0
 29 30  1  0
 29 35  1  0
 30 31  1  0
 31 32  1  0
 32 33  1  0
 32 34  1  0
 34 35  1  0
  1 38  1  0
  1 39  1  0
  2 40  1  0
  2 41  1  0
  3 42  1  1
  4 43  1  0
  4 44  1  0
  5 45  1  0
  6 46  1  0
  6 47  1  0
  7 48  1  0
  8 49  1  0
  8 50  1  0
  9 51  1  0
  9 52  1  0
 10 53  1  0
 11 54  1  0
 12 55  1  0
 13 56  1  0
 14 57  1  6
 15 58  1  1
 16 59  1  0
 16 60  1  0
 17 61  1  0
 17 62  1  0
 18 63  1  0
 19 64  1  0
 19 65  1  0
 20 66  1  0
 21 67  1  0
 22 68  1  0
 23 69  1  0
 23 70  1  0
 24 71  1  0
 24 72  1  0
 25 73  1  0
 26 74  1  0
 26 75  1  0
 27 76  1  0
 27 77  1  0
 28 78  1  0
 28 79  1  0
 30 80  1  0
 30 81  1  0
 31 82  1  0
 31 83  1  0
 33 84  1  0
 33 85  1  0
 33 86  1  0
 34 87  1  0
 34 88  1  0
 35 89  1  0
 35 90  1  0
 36 91  1  0
 37 92  1  0
 37 93  1  0
 37 94  1  0
M  END
$$$$
SRC-ABL TYROSINE KINASE ANCESTOR
     RDKit          3D

 94 98  0  0  0  0  0  0  0  0999 V2000
   -1.7202   -3.7043    0.8620 C   0  0  0  0  0  0  0  0  0  0  0  0
   -1.5601   -4.9129   -0.0126 C   0  0  0  0  0  0  0  0  0  0  0  0
   -2.0340   -4.6870   -1.4161 C   0  0  1  0  0  0  0  0  0  0  0  0
   -3.4809   -4.2791   -1.3365 C   0  0  0  0  0  0  0  0  0  0  0  0
   -3.6155   -3.0829   -0.6205 N   0  0  0  0  0  0  0  0  0  0  0  0
   -2.8142   -2.7931    0.4883 C   0  0  0  0  0  0  0  0  0  0  0  0
   -1.2108   -3.6729   -2.1874 C   0  0  0  0  0  0  0  0  0  0  0  0
    0.2153   -4.2122   -2.1944 C   0  0  0  0  0  0  0  0  0  0  0  0
    1.0406   -3.5732   -3.2634 C   0  0  0  0  0  0  0  0  0  0  0  0
    0.3228   -3.4569   -4.5130 N   0  0  0  0  0  0  0  0  0  0  0  0
   -0.9119   -2.6592   -4.3221 C   0  0  0  0  0  0  0  0  0  0  0  0
   -1.7787   -3.5023   -3.4843 N   0  0  0  0  0  0  0  0  0  0  0  0
   -0.6553   -1.4537   -3.6238 N   0  0  0  0  0  0  0  0  0  0  0  0
   -1.6298   -0.3968   -3.7514 C   0  0  1  0  0  0  0  0  0  0  0  0
   -3.0070   -0.6526   -3.3393 C   0  0  1  0  0  0  0  0  0  0  0  0
   -3.6201    0.1690   -2.2604 C   0  0  0  0  0  0  0  0  0  0  0  0
   -2.9742    1.5190   -2.0261 C   0  0  0  0  0  0  0  0  0  0  0  0
   -1.5129    1.2027   -1.8274 C   0  0  0  0  0  0  0  0  0  0  0  0
   -1.0011    0.8547   -3.2036 C   0  0  0  0  0  0  0  0  0  0  0  0
   -0.7410    2.1608   -1.1286 N   0  0  0  0  0  0  0  0  0  0  0  0
   -0.5869    3.4481   -1.6346 C   0  0  0  0  0  0  0  0  0  0  0  0
    0.2249    4.3531   -0.7301 C   0  0  0  0  0  0  0  0  0  0  0  0
   -0.3849    4.5259    0.6245 C   0  0  0  0  0  0  0  0  0  0  0  0
    0.1026    3.5303    1.6532 C   0  0  0  0  0  0  0  0  0  0  0  0
    1.5872    3.5803    1.8059 C   0  0  0  0  0  0  0  0  0  0  0  0
    2.1863    4.4713    0.7552 C   0  0  0  0  0  0  0  0  0  0  0  0
    1.6578    3.9489   -0.5870 C   0  0  0  0  0  0  0  0  0  0  0  0
    2.0332    3.9562    3.1878 C   0  0  0  0  0  0  0  0  0  0  0  0
    1.5611    3.0216    4.1746 N   0  0  0  0  0  0  0  0  0  0  0  0
    2.1869    1.7213    4.0470 C   0  0  0  0  0  0  0  0  0  0  0  0
    1.8368    0.8955    5.2855 C   0  0  0  0  0  0  0  0  0  0  0  0
    0.6168    1.4411    5.8593 N   0  0  0  0  0  0  0  0  0  0  0  0
    0.0693    0.5282    6.8497 C   0  0  0  0  0  0  0  0  0  0  0  0
    0.9339    2.7241    6.4625 C   0  0  0  0  0  0  0  0  0  0  0  0
    1.8471    3.4867    5.5309 C   0  0  0  0  0  0  0  0  0  0  0  0
   -1.7141    4.1370   -1.9880 O   0  0  0  0  0  0  0  0  0  0  0  0
   -3.9039   -0.6121   -4.6088 C   0  0  0  0  0  0  0  0  0  0  0  0
   -0.7400   -3.1518    0.7778 H   0  0  0  0  0  0  0  0  0  0  0  0
   -1.7679   -4.0445    1.9145 H   0  0  0  0  0  0  0  0  0  0  0  0
   -2.1529   -5.7744    0.3728 H   0  0  0  0  0  0  0  0  0  0  0  0
   -0.5129   -5.2799   -0.0589 H   0  0  0  0  0  0  0  0  0  0  0  0
   -1.9821   -5.6846   -1.9410 H   0  0  0  0  0  0  0  0  0  0  0  0
   -4.0823   -5.0741   -0.8507 H   0  0  0  0  0  0  0  0  0  0  0  0
   -3.8230   -4.0947   -2.3866 H   0  0  0  0  0  0  0  0  0  0  0  0
   -4.5814   -2.7103   -0.5424 H   0  0  0  0  0  0  0  0  0  0  0  0
   -3.4944   -2.6834    1.3851 H   0  0  0  0  0  0  0  0  0  0  0  0
   -2.4278   -1.7393    0.3528 H   0  0  0  0  0  0  0  0  0  0  0  0
   -1.2108   -2.7323   -1.6329 H   0  0  0  0  0  0  0  0  0  0  0  0
    0.6815   -3.9468   -1.2089 H   0  0  0  0  0  0  0  0  0  0  0  0
    0.2380   -5.3138   -2.3013 H   0  0  0  0  0  0  0  0  0  0  0  0
    1.9246   -4.2133   -3.4542 H   0  0  0  0  0  0  0  0  0  0  0  0
    1.4257   -2.5788   -2.9940 H   0  0  0  0  0  0  0  0  0  0  0  0
   -0.0591   -4.4219   -4.7462 H   0  0  0  0  0  0  0  0  0  0  0  0
   -1.3348   -2.5602   -5.3376 H   0  0  0  0  0  0  0  0  0  0  0  0
   -2.0668   -4.3597   -3.9692 H   0  0  0  0  0  0  0  0  0  0  0  0
    0.2411   -1.0576   -3.9859 H   0  0  0  0  0  0  0  0  0  0  0  0
   -1.6505   -0.2102   -4.8871 H   0  0  0  0  0  0  0  0  0  0  0  0
   -3.1651   -1.7213   -3.0024 H   0  0  0  0  0  0  0  0  0  0  0  0
   -4.7007    0.2743   -2.5047 H   0  0  0  0  0  0  0  0  0  0  0  0
   -3.4925   -0.3789   -1.2901 H   0  0  0  0  0  0  0  0  0  0  0  0
   -3.1536    2.0878   -2.9767 H   0  0  0  0  0  0  0  0  0  0  0  0
   -3.4727    1.9528   -1.1578 H   0  0  0  0  0  0  0  0  0  0  0  0
   -1.4636    0.2687   -1.2301 H   0  0  0  0  0  0  0  0  0  0  0  0
    0.1050    0.7775   -3.2389 H   0  0  0  0  0  0  0  0  0  0  0  0
   -1.2494    1.7456   -3.8471 H   0  0  0  0  0  0  0  0  0  0  0  0
    0.1636    1.7105   -0.8739 H   0  0  0  0  0  0  0  0  0  0  0  0
    0.0334    3.3746   -2.5781 H   0  0  0  0  0  0  0  0  0  0  0  0
    0.1988    5.3798   -1.2187 H   0  0  0  0  0  0  0  0  0  0  0  0
   -1.4833    4.6106    0.6109 H   0  0  0  0  0  0  0  0  0  0  0  0
   -0.0389    5.5292    1.0141 H   0  0  0  0  0  0  0  0  0  0  0  0
   -0.4415    3.7277    2.6017 H   0  0  0  0  0  0  0  0  0  0  0  0
   -0.2419    2.5222    1.3357 H   0  0  0  0  0  0  0  0  0  0  0  0
    1.9972    2.5537    1.6069 H   0  0  0  0  0  0  0  0  0  0  0  0
    1.9979    5.5399    0.8864 H   0  0  0  0  0  0  0  0  0  0  0  0
    3.2940    4.3536    0.7466 H   0  0  0  0  0  0  0  0  0  0  0  0
    2.2923    4.3788   -1.3916 H   0  0  0  0  0  0  0  0  0  0  0  0
    1.7753    2.8532   -0.5299 H   0  0  0  0  0  0  0  0  0  0  0  0
    1.7683    4.9898    3.4526 H   0  0  0  0  0  0  0  0  0  0  0  0
    3.1472    3.9046    3.2203 H   0  0  0  0  0  0  0  0  0  0  0  0
    3.3120    1.7908    4.0157 H   0  0  0  0  0  0  0  0  0  0  0  0
    1.8447    1.2085    3.1363 H   0  0  0  0  0  0  0  0  0  0  0  0
    2.6734    0.9135    6.0341 H   0  0  0  0  0  0  0  0  0  0  0  0
    1.7017   -0.1678    5.0063 H   0  0  0  0  0  0  0  0  0  0  0  0
   -0.9037    0.1348    6.4946 H   0  0  0  0  0  0  0  0  0  0  0  0
   -0.0878    1.0487    7.8236 H   0  0  0  0  0  0  0  0  0  0  0  0
    0.7515   -0.3258    6.9644 H   0  0  0  0  0  0  0  0  0  0  0  0
    1.3933    2.5765    7.4649 H   0  0  0  0  0  0  0  0  0  0  0  0
    0.0311    3.3421    6.6245 H   0  0  0  0  0  0  0  0  0  0  0  0
    2.9223    3.2461    5.7703 H   0  0  0  0  0  0  0  0  0  0  0  0
    1.6511    4.5700    5.6585 H   0  0  0  0  0  0  0  0  0  0  0  0
   -1.4373    5.0585   -2.2690 H   0  0  0  0  0  0  0  0  0  0  0  0
   -3.2663   -1.0457   -5.4107 H   0  0  0  0  0  0  0  0  0  0  0  0
   -4.7769   -1.2566   -4.4945 H   0  0  0  0  0  0  0  0  0  0  0  0
   -4.1163    0.4311   -4.9009 H   0  0  0  0  0  0  0  0  0  0  0  0
  1  2  1  0
  1  6  1  0
  2  3  1  0
  3  4  1  0
  3  7  1  0
  4  5  1  0
  5  6  1  0
  7  8  1  0
  7 12  1  0
  8  9  1  0
  9 10  1  0
 10 11  1  0
 11 12  1  0
 11 13  1  0
 13 14  1  0
 14 15  1  0
 14 19  1  0
 15 16  1  0
 15 37  1  0
 16 17  1  0
 17 18  1  0
 18 19  1  0
 18 20  1  0
 20 21  1  0
 21 22  1  0
 21 36  1  0
 22 23  1  0
 22 27  1  0
 23 24  1  0
 24 25  1  0
 25 26  1  0
 25 28  1  0
 26 27  1  0
 28 29  1  0
 29 30  1  0
 29 35  1  0
 30 31  1  0
 31 32  1  0
 32 33  1  0
 32 34  1  0
 34 35  1  0
  1 38  1  0
  1 39  1  0
  2 40  1  0
  2 41  1  0
  3 42  1  6
  4 43  1  0
  4 44  1  0
  5 45  1  0
  6 46  1  0
  6 47  1  0
  7 48  1  0
  8 49  1  0
  8 50  1  0
  9 51  1  0
  9 52  1  0
 10 53  1  0
 11 54  1  0
 12 55  1  0
 13 56  1  0
 14 57  1  6
 15 58  1  1
 16 59  1  0
 16 60  1  0
 17 61  1  0
 17 62  1  0
 18 63  1  0
 19 64  1  0
 19 65  1  0
 20 66  1  0
 21 67  1  0
 22 68  1  0
 23 69  1  0
 23 70  1  0
 24 71  1  0
 24 72  1  0
 25 73  1  0
 26 74  1  0
 26 75  1  0
 27 76  1  0
 27 77  1  0
 28 78  1  0
 28 79  1  0
 30 80  1  0
 30 81  1  0
 31 82  1  0
 31 83  1  0
 33 84  1  0
 33 85  1  0
 33 86  1  0
 34 87  1  0
 34 88  1  0
 35 89  1  0
 35 90  1  0
 36 91  1  0
 37 92  1  0
 37 93  1  0
 37 94  1  0
M  END
$$$$
SRC-ABL TYROSINE KINASE ANCESTOR
     RDKit          3D

 94 98  0  0  0  0  0  0  0  0999 V2000
   -2.6640    4.6025    1.3601 C   0  0  0  0  0  0  0  0  0  0  0  0
   -2.6155    3.8111    0.0660 C   0  0  0  0  0  0  0  0  0  0  0  0
   -1.1814    3.8548   -0.4791 C   0  0  1  0  0  0  0  0  0  0  0  0
   -0.3583    3.1465    0.6000 C   0  0  0  0  0  0  0  0  0  0  0  0
   -0.2648    4.0979    1.6914 N   0  0  0  0  0  0  0  0  0  0  0  0
   -1.5471    4.2219    2.3066 C   0  0  0  0  0  0  0  0  0  0  0  0
   -1.0962    3.0970   -1.7611 C   0  0  0  0  0  0  0  0  0  0  0  0
   -2.0033    3.6138   -2.8262 C   0  0  0  0  0  0  0  0  0  0  0  0
   -1.7868    2.7960   -4.0791 C   0  0  0  0  0  0  0  0  0  0  0  0
   -2.1805    1.4389   -3.7373 N   0  0  0  0  0  0  0  0  0  0  0  0
   -1.3177    0.9032   -2.6868 C   0  0  0  0  0  0  0  0  0  0  0  0
   -1.3269    1.6955   -1.5106 N   0  0  0  0  0  0  0  0  0  0  0  0
   -1.6646   -0.4604   -2.5340 N   0  0  0  0  0  0  0  0  0  0  0  0
   -2.9897   -0.8078   -2.1516 C   0  0  1  0  0  0  0  0  0  0  0  0
   -3.2895   -2.2761   -2.5176 C   0  0  1  0  0  0  0  0  0  0  0  0
   -4.4679   -2.7579   -1.6548 C   0  0  0  0  0  0  0  0  0  0  0  0
   -3.8409   -2.8956   -0.2772 C   0  0  0  0  0  0  0  0  0  0  0  0
   -3.5777   -1.5554    0.2422 C   0  0  0  0  0  0  0  0  0  0  0  0
   -3.4161   -0.4728   -0.7764 C   0  0  0  0  0  0  0  0  0  0  0  0
   -2.6163   -1.4088    1.2682 N   0  0  0  0  0  0  0  0  0  0  0  0
   -1.2941   -1.7948    1.1583 C   0  0  0  0  0  0  0  0  0  0  0  0
   -0.6254   -1.5925    2.5249 C   0  0  0  0  0  0  0  0  0  0  0  0
    0.8303   -2.0184    2.3944 C   0  0  0  0  0  0  0  0  0  0  0  0
    1.5774   -1.8087    3.6721 C   0  0  0  0  0  0  0  0  0  0  0  0
    1.3292   -0.5912    4.4355 C   0  0  0  0  0  0  0  0  0  0  0  0
    0.1443    0.2335    4.0676 C   0  0  0  0  0  0  0  0  0  0  0  0
   -0.5398   -0.1149    2.7924 C   0  0  0  0  0  0  0  0  0  0  0  0
    2.5332    0.2883    4.5778 C   0  0  0  0  0  0  0  0  0  0  0  0
    3.1449    0.8425    3.4574 N   0  0  0  0  0  0  0  0  0  0  0  0
    3.8782    0.1129    2.5191 C   0  0  0  0  0  0  0  0  0  0  0  0
    5.1255   -0.4630    3.1717 C   0  0  0  0  0  0  0  0  0  0  0  0
    5.7760    0.4845    4.0178 N   0  0  0  0  0  0  0  0  0  0  0  0
    6.4936   -0.0084    5.1274 C   0  0  0  0  0  0  0  0  0  0  0  0
    5.3312    1.8123    4.0176 C   0  0  0  0  0  0  0  0  0  0  0  0
    3.8829    2.0727    3.7488 C   0  0  0  0  0  0  0  0  0  0  0  0
   -0.4792   -1.2563    0.2167 O   0  0  0  0  0  0  0  0  0  0  0  0
   -3.7327   -2.3835   -3.9566 C   0  0  0  0  0  0  0  0  0  0  0  0
   -3.6234    4.3264    1.8445 H   0  0  0  0  0  0  0  0  0  0  0  0
   -2.5866    5.6714    1.1359 H   0  0  0  0  0  0  0  0  0  0  0  0
   -2.8281    2.7476    0.2840 H   0  0  0  0  0  0  0  0  0  0  0  0
   -3.2990    4.2670   -0.6465 H   0  0  0  0  0  0  0  0  0  0  0  0
   -0.7949    4.8850   -0.5420 H   0  0  0  0  0  0  0  0  0  0  0  0
    0.5880    2.7509    0.2448 H   0  0  0  0  0  0  0  0  0  0  0  0
   -0.9538    2.2872    1.0215 H   0  0  0  0  0  0  0  0  0  0  0  0
   -0.0000    5.0235    1.2448 H   0  0  0  0  0  0  0  0  0  0  0  0
   -1.4756    5.0472    3.0679 H   0  0  0  0  0  0  0  0  0  0  0  0
   -1.7698    3.2513    2.8362 H   0  0  0  0  0  0  0  0  0  0  0  0
   -0.0443    3.2195   -2.1628 H   0  0  0  0  0  0  0  0  0  0  0  0
   -1.7916    4.6743   -3.0732 H   0  0  0  0  0  0  0  0  0  0  0  0
   -3.0747    3.4546   -2.5454 H   0  0  0  0  0  0  0  0  0  0  0  0
   -0.7418    2.8364   -4.4427 H   0  0  0  0  0  0  0  0  0  0  0  0
   -2.5078    3.1612   -4.8368 H   0  0  0  0  0  0  0  0  0  0  0  0
   -1.9175    0.8675   -4.5959 H   0  0  0  0  0  0  0  0  0  0  0  0
   -0.2598    0.9392   -3.1045 H   0  0  0  0  0  0  0  0  0  0  0  0
   -0.5345    1.3756   -0.8917 H   0  0  0  0  0  0  0  0  0  0  0  0
   -1.3037   -0.9914   -3.3543 H   0  0  0  0  0  0  0  0  0  0  0  0
   -3.6629   -0.2436   -2.8698 H   0  0  0  0  0  0  0  0  0  0  0  0
   -2.3858   -2.8762   -2.3342 H   0  0  0  0  0  0  0  0  0  0  0  0
   -5.2837   -2.0278   -1.7011 H   0  0  0  0  0  0  0  0  0  0  0  0
   -4.7328   -3.7690   -1.9893 H   0  0  0  0  0  0  0  0  0  0  0  0
   -4.5784   -3.4341    0.3563 H   0  0  0  0  0  0  0  0  0  0  0  0
   -2.9449   -3.5235   -0.4831 H   0  0  0  0  0  0  0  0  0  0  0  0
   -4.5664   -1.2773    0.7784 H   0  0  0  0  0  0  0  0  0  0  0  0
   -4.3751    0.1444   -0.8733 H   0  0  0  0  0  0  0  0  0  0  0  0
   -2.7052    0.3132   -0.3870 H   0  0  0  0  0  0  0  0  0  0  0  0
   -2.9804   -1.7204    2.2008 H   0  0  0  0  0  0  0  0  0  0  0  0
   -1.2609   -2.9154    1.0001 H   0  0  0  0  0  0  0  0  0  0  0  0
   -1.0989   -2.1789    3.3221 H   0  0  0  0  0  0  0  0  0  0  0  0
    1.2384   -1.4373    1.5495 H   0  0  0  0  0  0  0  0  0  0  0  0
    0.9124   -3.0793    2.0971 H   0  0  0  0  0  0  0  0  0  0  0  0
    1.2487   -2.7386    4.2933 H   0  0  0  0  0  0  0  0  0  0  0  0
    2.6354   -2.0733    3.4949 H   0  0  0  0  0  0  0  0  0  0  0  0
    1.1321   -0.9258    5.5159 H   0  0  0  0  0  0  0  0  0  0  0  0
   -0.6303    0.2099    4.8613 H   0  0  0  0  0  0  0  0  0  0  0  0
    0.4492    1.2979    3.9896 H   0  0  0  0  0  0  0  0  0  0  0  0
   -1.5611    0.3065    2.7501 H   0  0  0  0  0  0  0  0  0  0  0  0
    0.0121    0.3035    1.9244 H   0  0  0  0  0  0  0  0  0  0  0  0
    2.3376    1.1175    5.3263 H   0  0  0  0  0  0  0  0  0  0  0  0
    3.3614   -0.2930    5.1336 H   0  0  0  0  0  0  0  0  0  0  0  0
    3.3810   -0.6467    1.9187 H   0  0  0  0  0  0  0  0  0  0  0  0
    4.2681    0.8555    1.7466 H   0  0  0  0  0  0  0  0  0  0  0  0
    5.8187   -0.7261    2.3443 H   0  0  0  0  0  0  0  0  0  0  0  0
    4.8976   -1.4001    3.7102 H   0  0  0  0  0  0  0  0  0  0  0  0
    6.7044    0.8596    5.8014 H   0  0  0  0  0  0  0  0  0  0  0  0
    7.5207   -0.3549    4.8201 H   0  0  0  0  0  0  0  0  0  0  0  0
    6.0283   -0.8214    5.7115 H   0  0  0  0  0  0  0  0  0  0  0  0
    5.5636    2.2642    5.0279 H   0  0  0  0  0  0  0  0  0  0  0  0
    6.0003    2.3931    3.3153 H   0  0  0  0  0  0  0  0  0  0  0  0
    3.3441    2.5469    4.5949 H   0  0  0  0  0  0  0  0  0  0  0  0
    3.7932    2.7590    2.8835 H   0  0  0  0  0  0  0  0  0  0  0  0
    0.2068   -1.8590   -0.1611 H   0  0  0  0  0  0  0  0  0  0  0  0
   -3.4851   -3.3864   -4.3651 H   0  0  0  0  0  0  0  0  0  0  0  0
   -3.2668   -1.5538   -4.5155 H   0  0  0  0  0  0  0  0  0  0  0  0
   -4.8376   -2.2026   -3.9776 H   0  0  0  0  0  0  0  0  0  0  0  0
  1  2  1  0
  1  6  1  0
  2  3  1  0
  3  4  1  0
  3  7  1  0
  4  5  1  0
  5  6  1  0
  7  8  1  0
  7 12  1  0
  8  9  1  0
  9 10  1  0
 10 11  1  0
 11 12  1  0
 11 13  1  0
 13 14  1  0
 14 15  1  0
 14 19  1  0
 15 16  1  0
 15 37  1  0
 16 17  1  0
 17 18  1  0
 18 19  1  0
 18 20  1  0
 20 21  1  0
 21 22  1  0
 21 36  1  0
 22 23  1  0
 22 27  1  0
 23 24  1  0
 24 25  1  0
 25 26  1  0
 25 28  1  0
 26 27  1  0
 28 29  1  0
 29 30  1  0
 29 35  1  0
 30 31  1  0
 31 32  1  0
 32 33  1  0
 32 34  1  0
 34 35  1  0
  1 38  1  0
  1 39  1  0
  2 40  1  0
  2 41  1  0
  3 42  1  6
  4 43  1  0
  4 44  1  0
  5 45  1  0
  6 46  1  0
  6 47  1  0
  7 48  1  0
  8 49  1  0
  8 50  1  0
  9 51  1  0
  9 52  1  0
 10 53  1  0
 11 54  1  0
 12 55  1  0
 13 56  1  0
 14 57  1  6
 15 58  1  6
 16 59  1  0
 16 60  1  0
 17 61  1  0
 17 62  1  0
 18 63  1  0
 19 64  1  0
 19 65  1  0
 20 66  1  0
 21 67  1  0
 22 68  1  0
 23 69  1  0
 23 70  1  0
 24 71  1  0
 24 72  1  0
 25 73  1  0
 26 74  1  0
 26 75  1  0
 27 76  1  0
 27 77  1  0
 28 78  1  0
 28 79  1  0
 30 80  1  0
 30 81  1  0
 31 82  1  0
 31 83  1  0
 33 84  1  0
 33 85  1  0
 33 86  1  0
 34 87  1  0
 34 88  1  0
 35 89  1  0
 35 90  1  0
 36 91  1  0
 37 92  1  0
 37 93  1  0
 37 94  1  0
M  END
$$$$
SRC-ABL TYROSINE KINASE ANCESTOR
     RDKit          3D

 94 98  0  0  0  0  0  0  0  0999 V2000
    2.6198   -5.5507   -1.0465 C   0  0  0  0  0  0  0  0  0  0  0  0
    2.7878   -4.4478   -0.0116 C   0  0  0  0  0  0  0  0  0  0  0  0
    3.5326   -3.3026   -0.6245 C   0  0  1  0  0  0  0  0  0  0  0  0
    2.7625   -2.8312   -1.8511 C   0  0  0  0  0  0  0  0  0  0  0  0
    2.6732   -3.9409   -2.7855 N   0  0  0  0  0  0  0  0  0  0  0  0
    1.8312   -4.9844   -2.1962 C   0  0  0  0  0  0  0  0  0  0  0  0
    3.6865   -2.1973    0.3632 C   0  0  0  0  0  0  0  0  0  0  0  0
    4.4533   -2.7062    1.5638 C   0  0  0  0  0  0  0  0  0  0  0  0
    4.7630   -1.5336    2.5069 C   0  0  0  0  0  0  0  0  0  0  0  0
    4.0181   -0.3597    2.1001 N   0  0  0  0  0  0  0  0  0  0  0  0
    2.6256   -0.7004    1.8903 C   0  0  0  0  0  0  0  0  0  0  0  0
    2.4428   -1.6054    0.7636 N   0  0  0  0  0  0  0  0  0  0  0  0
    2.0249   -1.2053    3.1145 N   0  0  0  0  0  0  0  0  0  0  0  0
    0.6396   -1.5122    2.8225 C   0  0  1  0  0  0  0  0  0  0  0  0
   -0.1255   -2.0298    3.9909 C   0  0  1  0  0  0  0  0  0  0  0  0
   -1.3735   -2.6824    3.4365 C   0  0  0  0  0  0  0  0  0  0  0  0
   -2.1677   -1.7439    2.5918 C   0  0  0  0  0  0  0  0  0  0  0  0
   -1.5470   -0.3923    2.5564 C   0  0  0  0  0  0  0  0  0  0  0  0
   -0.0943   -0.3378    2.2372 C   0  0  0  0  0  0  0  0  0  0  0  0
   -2.2131    0.5238    1.6196 N   0  0  0  0  0  0  0  0  0  0  0  0
   -3.5575    0.6961    2.0358 C   0  0  0  0  0  0  0  0  0  0  0  0
   -4.3431    1.6576    1.1567 C   0  0  0  0  0  0  0  0  0  0  0  0
   -3.7677    3.0376    1.1081 C   0  0  0  0  0  0  0  0  0  0  0  0
   -2.7159    3.2209    0.0543 C   0  0  0  0  0  0  0  0  0  0  0  0
   -3.0070    2.6223   -1.2697 C   0  0  0  0  0  0  0  0  0  0  0  0
   -3.7536    1.3378   -1.2866 C   0  0  0  0  0  0  0  0  0  0  0  0
   -4.7083    1.1042   -0.1757 C   0  0  0  0  0  0  0  0  0  0  0  0
   -1.6493    2.3410   -1.9268 C   0  0  0  0  0  0  0  0  0  0  0  0
   -0.9222    3.5935   -2.0694 N   0  0  0  0  0  0  0  0  0  0  0  0
    0.3904    3.3484   -2.6701 C   0  0  0  0  0  0  0  0  0  0  0  0
    1.1875    4.6047   -2.5245 C   0  0  0  0  0  0  0  0  0  0  0  0
    0.3849    5.7341   -2.9697 N   0  0  0  0  0  0  0  0  0  0  0  0
    1.1922    6.6214   -3.7713 C   0  0  0  0  0  0  0  0  0  0  0  0
   -0.7373    5.2811   -3.7632 C   0  0  0  0  0  0  0  0  0  0  0  0
   -1.7128    4.4698   -2.9174 C   0  0  0  0  0  0  0  0  0  0  0  0
   -3.5529    1.1917    3.3384 O   0  0  0  0  0  0  0  0  0  0  0  0
    0.6675   -2.9674    4.8586 C   0  0  0  0  0  0  0  0  0  0  0  0
    3.6429   -5.8773   -1.3680 H   0  0  0  0  0  0  0  0  0  0  0  0
    2.1644   -6.4499   -0.5920 H   0  0  0  0  0  0  0  0  0  0  0  0
    1.8042   -4.1749    0.3780 H   0  0  0  0  0  0  0  0  0  0  0  0
    3.4263   -4.8866    0.7939 H   0  0  0  0  0  0  0  0  0  0  0  0
    4.4978   -3.6833   -1.0033 H   0  0  0  0  0  0  0  0  0  0  0  0
    1.7583   -2.4359   -1.5937 H   0  0  0  0  0  0  0  0  0  0  0  0
    3.3677   -2.0430   -2.3381 H   0  0  0  0  0  0  0  0  0  0  0  0
    2.2035   -3.5805   -3.6280 H   0  0  0  0  0  0  0  0  0  0  0  0
    1.5977   -5.7355   -2.9618 H   0  0  0  0  0  0  0  0  0  0  0  0
    0.9353   -4.5000   -1.7671 H   0  0  0  0  0  0  0  0  0  0  0  0
    4.3128   -1.4025   -0.1065 H   0  0  0  0  0  0  0  0  0  0  0  0
    5.3997   -3.1443    1.2345 H   0  0  0  0  0  0  0  0  0  0  0  0
    3.8043   -3.4161    2.1283 H   0  0  0  0  0  0  0  0  0  0  0  0
    5.8377   -1.2613    2.4525 H   0  0  0  0  0  0  0  0  0  0  0  0
    4.4338   -1.7678    3.5305 H   0  0  0  0  0  0  0  0  0  0  0  0
    4.3928    0.1072    1.2571 H   0  0  0  0  0  0  0  0  0  0  0  0
    2.1378    0.2712    1.5917 H   0  0  0  0  0  0  0  0  0  0  0  0
    1.9893   -1.1362   -0.0467 H   0  0  0  0  0  0  0  0  0  0  0  0
    2.0764   -0.4501    3.8110 H   0  0  0  0  0  0  0  0  0  0  0  0
    0.6322   -2.3242    2.0496 H   0  0  0  0  0  0  0  0  0  0  0  0
   -0.4341   -1.1896    4.6326 H   0  0  0  0  0  0  0  0  0  0  0  0
   -1.9427   -3.1656    4.2573 H   0  0  0  0  0  0  0  0  0  0  0  0
   -1.0192   -3.5131    2.7743 H   0  0  0  0  0  0  0  0  0  0  0  0
   -3.1717   -1.6257    3.0966 H   0  0  0  0  0  0  0  0  0  0  0  0
   -2.4174   -2.1515    1.5913 H   0  0  0  0  0  0  0  0  0  0  0  0
   -1.6749    0.0396    3.5913 H   0  0  0  0  0  0  0  0  0  0  0  0
    0.3848    0.5745    2.6964 H   0  0  0  0  0  0  0  0  0  0  0  0
    0.0834   -0.2254    1.1478 H   0  0  0  0  0  0  0  0  0  0  0  0
   -2.0414    0.1272    0.6932 H   0  0  0  0  0  0  0  0  0  0  0  0
   -4.1661   -0.2428    2.0361 H   0  0  0  0  0  0  0  0  0  0  0  0
   -5.3053    1.7784    1.7250 H   0  0  0  0  0  0  0  0  0  0  0  0
   -3.3478    3.2979    2.0801 H   0  0  0  0  0  0  0  0  0  0  0  0
   -4.5864    3.7603    0.8921 H   0  0  0  0  0  0  0  0  0  0  0  0
   -1.7081    2.8841    0.4323 H   0  0  0  0  0  0  0  0  0  0  0  0
   -2.6021    4.3178   -0.0710 H   0  0  0  0  0  0  0  0  0  0  0  0
   -3.4871    3.3689   -1.9675 H   0  0  0  0  0  0  0  0  0  0  0  0
   -4.3542    1.3228   -2.2472 H   0  0  0  0  0  0  0  0  0  0  0  0
   -3.0669    0.4506   -1.4447 H   0  0  0  0  0  0  0  0  0  0  0  0
   -5.7074    1.5348   -0.4729 H   0  0  0  0  0  0  0  0  0  0  0  0
   -4.8613    0.0092   -0.0710 H   0  0  0  0  0  0  0  0  0  0  0  0
   -1.7609    1.7824   -2.8615 H   0  0  0  0  0  0  0  0  0  0  0  0
   -1.0811    1.7331   -1.1727 H   0  0  0  0  0  0  0  0  0  0  0  0
    0.2636    2.9929   -3.6968 H   0  0  0  0  0  0  0  0  0  0  0  0
    0.8336    2.5144   -2.0791 H   0  0  0  0  0  0  0  0  0  0  0  0
    1.3806    4.7346   -1.4229 H   0  0  0  0  0  0  0  0  0  0  0  0
    2.1426    4.5269   -3.0555 H   0  0  0  0  0  0  0  0  0  0  0  0
    0.7366    7.6366   -3.7399 H   0  0  0  0  0  0  0  0  0  0  0  0
    1.2323    6.2342   -4.8214 H   0  0  0  0  0  0  0  0  0  0  0  0
    2.2421    6.6594   -3.4107 H   0  0  0  0  0  0  0  0  0  0  0  0
   -0.3980    4.6858   -4.6223 H   0  0  0  0  0  0  0  0  0  0  0  0
   -1.2965    6.1861   -4.0942 H   0  0  0  0  0  0  0  0  0  0  0  0
   -2.3198    5.1363   -2.2962 H   0  0  0  0  0  0  0  0  0  0  0  0
   -2.3234    3.8185   -3.5786 H   0  0  0  0  0  0  0  0  0  0  0  0
   -2.7981    1.8197    3.4918 H   0  0  0  0  0  0  0  0  0  0  0  0
    0.0785   -3.1925    5.7458 H   0  0  0  0  0  0  0  0  0  0  0  0
    0.9055   -3.9251    4.3614 H   0  0  0  0  0  0  0  0  0  0  0  0
    1.5793   -2.4419    5.1798 H   0  0  0  0  0  0  0  0  0  0  0  0
  1  2  1  0
  1  6  1  0
  2  3  1  0
  3  4  1  0
  3  7  1  0
  4  5  1  0
  5  6  1  0
  7  8  1  0
  7 12  1  0
  8  9  1  0
  9 10  1  0
 10 11  1  0
 11 12  1  0
 11 13  1  0
 13 14  1  0
 14 15  1  0
 14 19  1  0
 15 16  1  0
 15 37  1  0
 16 17  1  0
 17 18  1  0
 18 19  1  0
 18 20  1  0
 20 21  1  0
 21 22  1  0
 21 36  1  0
 22 23  1  0
 22 27  1  0
 23 24  1  0
 24 25  1  0
 25 26  1  0
 25 28  1  0
 26 27  1  0
 28 29  1  0
 29 30  1  0
 29 35  1  0
 30 31  1  0
 31 32  1  0
 32 33  1  0
 32 34  1  0
 34 35  1  0
  1 38  1  0
  1 39  1  0
  2 40  1  0
  2 41  1  0
  3 42  1  6
  4 43  1  0
  4 44  1  0
  5 45  1  0
  6 46  1  0
  6 47  1  0
  7 48  1  0
  8 49  1  0
  8 50  1  0
  9 51  1  0
  9 52  1  0
 10 53  1  0
 11 54  1  0
 12 55  1  0
 13 56  1  0
 14 57  1  6
 15 58  1  1
 16 59  1  0
 16 60  1  0
 17 61  1  0
 17 62  1  0
 18 63  1  0
 19 64  1  0
 19 65  1  0
 20 66  1  0
 21 67  1  0
 22 68  1  0
 23 69  1  0
 23 70  1  0
 24 71  1  0
 24 72  1  0
 25 73  1  0
 26 74  1  0
 26 75  1  0
 27 76  1  0
 27 77  1  0
 28 78  1  0
 28 79  1  0
 30 80  1  0
 30 81  1  0
 31 82  1  0
 31 83  1  0
 33 84  1  0
 33 85  1  0
 33 86  1  0
 34 87  1  0
 34 88  1  0
 35 89  1  0
 35 90  1  0
 36 91  1  0
 37 92  1  0
 37 93  1  0
 37 94  1  0
M  END
$$$$
SRC-ABL TYROSINE KINASE ANCESTOR
     RDKit          3D

 94 98  0  0  0  0  0  0  0  0999 V2000
   -0.7941    2.5067    2.5227 C   0  0  0  0  0  0  0  0  0  0  0  0
   -1.6678    1.7332    1.5640 C   0  0  0  0  0  0  0  0  0  0  0  0
   -3.0751    2.3317    1.6950 C   0  0  1  0  0  0  0  0  0  0  0  0
   -3.0069    3.6720    1.0425 C   0  0  0  0  0  0  0  0  0  0  0  0
   -1.6651    4.2658    1.1839 N   0  0  0  0  0  0  0  0  0  0  0  0
   -1.1300    3.9836    2.4802 C   0  0  0  0  0  0  0  0  0  0  0  0
   -4.1043    1.3884    1.0632 C   0  0  0  0  0  0  0  0  0  0  0  0
   -5.5089    1.9149    1.1816 C   0  0  0  0  0  0  0  0  0  0  0  0
   -5.8440    2.7714    0.0288 C   0  0  0  0  0  0  0  0  0  0  0  0
   -5.3337    2.4355   -1.2381 N   0  0  0  0  0  0  0  0  0  0  0  0
   -4.3510    1.4303   -1.3695 C   0  0  0  0  0  0  0  0  0  0  0  0
   -3.7203    0.9236   -0.2154 N   0  0  0  0  0  0  0  0  0  0  0  0
   -3.3385    1.9911   -2.2870 N   0  0  0  0  0  0  0  0  0  0  0  0
   -2.2919    1.0447   -2.6072 C   0  0  1  0  0  0  0  0  0  0  0  0
   -2.7900   -0.1208   -3.4169 C   0  0  1  0  0  0  0  0  0  0  0  0
   -2.1003   -0.0438   -4.7798 C   0  0  0  0  0  0  0  0  0  0  0  0
   -0.6175   -0.2832   -4.4871 C   0  0  0  0  0  0  0  0  0  0  0  0
   -0.0471    0.8122   -3.6626 C   0  0  0  0  0  0  0  0  0  0  0  0
   -1.1203    1.7629   -3.2125 C   0  0  0  0  0  0  0  0  0  0  0  0
    0.6772    0.3814   -2.4801 N   0  0  0  0  0  0  0  0  0  0  0  0
    1.8533   -0.3641   -2.7766 C   0  0  0  0  0  0  0  0  0  0  0  0
    2.5269   -0.8986   -1.5452 C   0  0  0  0  0  0  0  0  0  0  0  0
    2.9489    0.1859   -0.6346 C   0  0  0  0  0  0  0  0  0  0  0  0
    2.4094    0.0618    0.7680 C   0  0  0  0  0  0  0  0  0  0  0  0
    2.4850   -1.2562    1.4092 C   0  0  0  0  0  0  0  0  0  0  0  0
    2.1203   -2.3592    0.4419 C   0  0  0  0  0  0  0  0  0  0  0  0
    1.6320   -1.9214   -0.8868 C   0  0  0  0  0  0  0  0  0  0  0  0
    3.6324   -1.6160    2.2738 C   0  0  0  0  0  0  0  0  0  0  0  0
    4.9475   -1.6148    1.7494 N   0  0  0  0  0  0  0  0  0  0  0  0
    5.8319   -2.3505    2.7196 C   0  0  0  0  0  0  0  0  0  0  0  0
    7.0649   -2.6708    1.9597 C   0  0  0  0  0  0  0  0  0  0  0  0
    7.4466   -1.7773    0.9253 N   0  0  0  0  0  0  0  0  0  0  0  0
    7.6075   -2.3783   -0.3783 C   0  0  0  0  0  0  0  0  0  0  0  0
    6.8698   -0.4856    0.9029 C   0  0  0  0  0  0  0  0  0  0  0  0
    5.6155   -0.3254    1.7167 C   0  0  0  0  0  0  0  0  0  0  0  0
    1.6634   -1.4026   -3.7031 O   0  0  0  0  0  0  0  0  0  0  0  0
   -2.4081   -1.4496   -2.8066 C   0  0  0  0  0  0  0  0  0  0  0  0
    0.2511    2.4236    2.1238 H   0  0  0  0  0  0  0  0  0  0  0  0
   -0.8061    2.0745    3.5236 H   0  0  0  0  0  0  0  0  0  0  0  0
   -1.2739    1.8749    0.5362 H   0  0  0  0  0  0  0  0  0  0  0  0
   -1.6367    0.6715    1.8465 H   0  0  0  0  0  0  0  0  0  0  0  0
   -3.2808    2.3899    2.7825 H   0  0  0  0  0  0  0  0  0  0  0  0
   -3.2017    3.6878   -0.0264 H   0  0  0  0  0  0  0  0  0  0  0  0
   -3.6693    4.3766    1.6034 H   0  0  0  0  0  0  0  0  0  0  0  0
   -1.7946    5.2929    1.0691 H   0  0  0  0  0  0  0  0  0  0  0  0
   -1.7970    4.2563    3.3256 H   0  0  0  0  0  0  0  0  0  0  0  0
   -0.1976    4.6068    2.5788 H   0  0  0  0  0  0  0  0  0  0  0  0
   -4.1003    0.5096    1.8005 H   0  0  0  0  0  0  0  0  0  0  0  0
   -6.2179    1.0743    1.3483 H   0  0  0  0  0  0  0  0  0  0  0  0
   -5.5077    2.5574    2.1136 H   0  0  0  0  0  0  0  0  0  0  0  0
   -5.5700    3.8337    0.2647 H   0  0  0  0  0  0  0  0  0  0  0  0
   -6.9756    2.7952   -0.0395 H   0  0  0  0  0  0  0  0  0  0  0  0
   -5.2428    3.2335   -1.9050 H   0  0  0  0  0  0  0  0  0  0  0  0
   -4.8226    0.5856   -1.9494 H   0  0  0  0  0  0  0  0  0  0  0  0
   -3.7346   -0.1186   -0.2319 H   0  0  0  0  0  0  0  0  0  0  0  0
   -3.8797    2.1289   -3.1848 H   0  0  0  0  0  0  0  0  0  0  0  0
   -1.8937    0.6314   -1.6310 H   0  0  0  0  0  0  0  0  0  0  0  0
   -3.8958   -0.1293   -3.5656 H   0  0  0  0  0  0  0  0  0  0  0  0
   -2.2726    0.9051   -5.2892 H   0  0  0  0  0  0  0  0  0  0  0  0
   -2.4471   -0.8446   -5.4594 H   0  0  0  0  0  0  0  0  0  0  0  0
   -0.6086   -1.2929   -4.0295 H   0  0  0  0  0  0  0  0  0  0  0  0
   -0.0909   -0.4122   -5.4661 H   0  0  0  0  0  0  0  0  0  0  0  0
    0.6420    1.4104   -4.3308 H   0  0  0  0  0  0  0  0  0  0  0  0
   -0.6588    2.3566   -2.3695 H   0  0  0  0  0  0  0  0  0  0  0  0
   -1.4161    2.4823   -4.0020 H   0  0  0  0  0  0  0  0  0  0  0  0
    0.9489    1.2714   -2.0086 H   0  0  0  0  0  0  0  0  0  0  0  0
    2.5675    0.3316   -3.3303 H   0  0  0  0  0  0  0  0  0  0  0  0
    3.4054   -1.4955   -1.9284 H   0  0  0  0  0  0  0  0  0  0  0  0
    2.6519    1.2224   -0.9629 H   0  0  0  0  0  0  0  0  0  0  0  0
    4.0543    0.2182   -0.6381 H   0  0  0  0  0  0  0  0  0  0  0  0
    1.2811    0.3059    0.6998 H   0  0  0  0  0  0  0  0  0  0  0  0
    2.7739    0.9151    1.3722 H   0  0  0  0  0  0  0  0  0  0  0  0
    1.5904   -1.2672    2.1473 H   0  0  0  0  0  0  0  0  0  0  0  0
    1.3888   -3.0219    0.9328 H   0  0  0  0  0  0  0  0  0  0  0  0
    3.0495   -3.0046    0.3600 H   0  0  0  0  0  0  0  0  0  0  0  0
    0.6210   -1.5261   -0.8229 H   0  0  0  0  0  0  0  0  0  0  0  0
    1.6120   -2.8088   -1.5511 H   0  0  0  0  0  0  0  0  0  0  0  0
    3.3810   -2.6376    2.7059 H   0  0  0  0  0  0  0  0  0  0  0  0
    3.6702   -0.9807    3.2169 H   0  0  0  0  0  0  0  0  0  0  0  0
    5.3066   -3.2352    3.0950 H   0  0  0  0  0  0  0  0  0  0  0  0
    5.9713   -1.6606    3.5728 H   0  0  0  0  0  0  0  0  0  0  0  0
    7.8877   -2.8661    2.6840 H   0  0  0  0  0  0  0  0  0  0  0  0
    6.9090   -3.6774    1.4678 H   0  0  0  0  0  0  0  0  0  0  0  0
    7.6531   -3.4794   -0.2624 H   0  0  0  0  0  0  0  0  0  0  0  0
    6.8482   -2.0382   -1.1078 H   0  0  0  0  0  0  0  0  0  0  0  0
    8.6137   -2.0587   -0.7597 H   0  0  0  0  0  0  0  0  0  0  0  0
    6.5863   -0.2380   -0.1561 H   0  0  0  0  0  0  0  0  0  0  0  0
    7.5925    0.2997    1.2066 H   0  0  0  0  0  0  0  0  0  0  0  0
    5.0279    0.5294    1.4481 H   0  0  0  0  0  0  0  0  0  0  0  0
    5.9760   -0.1257    2.7709 H   0  0  0  0  0  0  0  0  0  0  0  0
    2.5512   -1.8064   -3.8512 H   0  0  0  0  0  0  0  0  0  0  0  0
   -3.1919   -1.7765   -2.0613 H   0  0  0  0  0  0  0  0  0  0  0  0
   -1.4816   -1.3733   -2.2048 H   0  0  0  0  0  0  0  0  0  0  0  0
   -2.3467   -2.2520   -3.5596 H   0  0  0  0  0  0  0  0  0  0  0  0
  1  2  1  0
  1  6  1  0
  2  3  1  0
  3  4  1  0
  3  7  1  0
  4  5  1  0
  5  6  1  0
  7  8  1  0
  7 12  1  0
  8  9  1  0
  9 10  1  0
 10 11  1  0
 11 12  1  0
 11 13  1  0
 13 14  1  0
 14 15  1  0
 14 19  1  0
 15 16  1  0
 15 37  1  0
 16 17  1  0
 17 18  1  0
 18 19  1  0
 18 20  1  0
 20 21  1  0
 21 22  1  0
 21 36  1  0
 22 23  1  0
 22 27  1  0
 23 24  1  0
 24 25  1  0
 25 26  1  0
 25 28  1  0
 26 27  1  0
 28 29  1  0
 29 30  1  0
 29 35  1  0
 30 31  1  0
 31 32  1  0
 32 33  1  0
 32 34  1  0
 34 35  1  0
  1 38  1  0
  1 39  1  0
  2 40  1  0
  2 41  1  0
  3 42  1  1
  4 43  1  0
  4 44  1  0
  5 45  1  0
  6 46  1  0
  6 47  1  0
  7 48  1  0
  8 49  1  0
  8 50  1  0
  9 51  1  0
  9 52  1  0
 10 53  1  0
 11 54  1  0
 12 55  1  0
 13 56  1  0
 14 57  1  1
 15 58  1  6
 16 59  1  0
 16 60  1  0
 17 61  1  0
 17 62  1  0
 18 63  1  0
 19 64  1  0
 19 65  1  0
 20 66  1  0
 21 67  1  0
 22 68  1  0
 23 69  1  0
 23 70  1  0
 24 71  1  0
 24 72  1  0
 25 73  1  0
 26 74  1  0
 26 75  1  0
 27 76  1  0
 27 77  1  0
 28 78  1  0
 28 79  1  0
 30 80  1  0
 30 81  1  0
 31 82  1  0
 31 83  1  0
 33 84  1  0
 33 85  1  0
 33 86  1  0
 34 87  1  0
 34 88  1  0
 35 89  1  0
 35 90  1  0
 36 91  1  0
 37 92  1  0
 37 93  1  0
 37 94  1  0
M  END
$$$$
SRC-ABL TYROSINE KINASE ANCESTOR
     RDKit          3D

 94 98  0  0  0  0  0  0  0  0999 V2000
   -3.2646   -4.6866   -3.9211 C   0  0  0  0  0  0  0  0  0  0  0  0
   -3.6856   -4.6178   -2.4663 C   0  0  0  0  0  0  0  0  0  0  0  0
   -3.8866   -3.1535   -2.1432 C   0  0  1  0  0  0  0  0  0  0  0  0
   -5.1334   -2.6770   -2.8062 C   0  0  0  0  0  0  0  0  0  0  0  0
   -5.1421   -3.1190   -4.1864 N   0  0  0  0  0  0  0  0  0  0  0  0
   -3.8284   -3.4827   -4.6809 C   0  0  0  0  0  0  0  0  0  0  0  0
   -3.8126   -2.8683   -0.6811 C   0  0  0  0  0  0  0  0  0  0  0  0
   -4.8216   -3.5757    0.1618 C   0  0  0  0  0  0  0  0  0  0  0  0
   -4.6835   -3.1496    1.5958 C   0  0  0  0  0  0  0  0  0  0  0  0
   -4.8337   -1.6940    1.7222 N   0  0  0  0  0  0  0  0  0  0  0  0
   -3.7844   -1.1479    0.8825 C   0  0  0  0  0  0  0  0  0  0  0  0
   -4.0319   -1.4356   -0.4893 N   0  0  0  0  0  0  0  0  0  0  0  0
   -3.3965    0.1953    1.2120 N   0  0  0  0  0  0  0  0  0  0  0  0
   -2.4059    0.6518    0.3072 C   0  0  1  0  0  0  0  0  0  0  0  0
   -2.8467    1.5705   -0.7893 C   0  0  1  0  0  0  0  0  0  0  0  0
   -1.7858    1.5189   -1.8637 C   0  0  0  0  0  0  0  0  0  0  0  0
   -0.4201    1.1439   -1.4173 C   0  0  0  0  0  0  0  0  0  0  0  0
   -0.0653    1.1893    0.0055 C   0  0  0  0  0  0  0  0  0  0  0  0
   -1.2368    1.3902    0.9538 C   0  0  0  0  0  0  0  0  0  0  0  0
    1.0598    2.0021    0.3817 N   0  0  0  0  0  0  0  0  0  0  0  0
    0.9784    3.3960    0.1696 C   0  0  0  0  0  0  0  0  0  0  0  0
    2.3089    4.0187    0.5772 C   0  0  0  0  0  0  0  0  0  0  0  0
    2.6722    3.7898    1.9927 C   0  0  0  0  0  0  0  0  0  0  0  0
    3.8112    2.8074    2.2249 C   0  0  0  0  0  0  0  0  0  0  0  0
    5.0462    3.1177    1.4525 C   0  0  0  0  0  0  0  0  0  0  0  0
    4.7768    3.9738    0.2284 C   0  0  0  0  0  0  0  0  0  0  0  0
    3.4253    3.6714   -0.3805 C   0  0  0  0  0  0  0  0  0  0  0  0
    5.9649    1.9845    1.1422 C   0  0  0  0  0  0  0  0  0  0  0  0
    6.5624    1.2792    2.1804 N   0  0  0  0  0  0  0  0  0  0  0  0
    5.8804    0.4200    3.0487 C   0  0  0  0  0  0  0  0  0  0  0  0
    5.5702   -0.9411    2.4342 C   0  0  0  0  0  0  0  0  0  0  0  0
    6.7999   -1.5441    1.9519 N   0  0  0  0  0  0  0  0  0  0  0  0
    6.4847   -2.8087    1.3227 C   0  0  0  0  0  0  0  0  0  0  0  0
    7.3779   -0.6360    0.9816 C   0  0  0  0  0  0  0  0  0  0  0  0
    7.8057    0.6083    1.7679 C   0  0  0  0  0  0  0  0  0  0  0  0
    0.5757    3.8287   -1.0649 O   0  0  0  0  0  0  0  0  0  0  0  0
   -4.2306    1.3990   -1.2929 C   0  0  0  0  0  0  0  0  0  0  0  0
   -3.6226   -5.6317   -4.4032 H   0  0  0  0  0  0  0  0  0  0  0  0
   -2.1632   -4.6403   -4.0336 H   0  0  0  0  0  0  0  0  0  0  0  0
   -2.9246   -5.0720   -1.7943 H   0  0  0  0  0  0  0  0  0  0  0  0
   -4.6240   -5.1707   -2.3571 H   0  0  0  0  0  0  0  0  0  0  0  0
   -3.0254   -2.5957   -2.6122 H   0  0  0  0  0  0  0  0  0  0  0  0
   -5.2747   -1.5802   -2.7387 H   0  0  0  0  0  0  0  0  0  0  0  0
   -5.9996   -3.1413   -2.3057 H   0  0  0  0  0  0  0  0  0  0  0  0
   -5.4452   -2.3117   -4.7835 H   0  0  0  0  0  0  0  0  0  0  0  0
   -3.1198   -2.6342   -4.7148 H   0  0  0  0  0  0  0  0  0  0  0  0
   -3.9777   -3.8215   -5.7252 H   0  0  0  0  0  0  0  0  0  0  0  0
   -2.7775   -3.1095   -0.3508 H   0  0  0  0  0  0  0  0  0  0  0  0
   -5.8298   -3.2965   -0.1836 H   0  0  0  0  0  0  0  0  0  0  0  0
   -4.7269   -4.6825    0.1188 H   0  0  0  0  0  0  0  0  0  0  0  0
   -3.6233   -3.3589    1.9027 H   0  0  0  0  0  0  0  0  0  0  0  0
   -5.3665   -3.6929    2.2743 H   0  0  0  0  0  0  0  0  0  0  0  0
   -5.7886   -1.4480    1.3400 H   0  0  0  0  0  0  0  0  0  0  0  0
   -2.8673   -1.7758    1.1603 H   0  0  0  0  0  0  0  0  0  0  0  0
   -5.0584   -1.3054   -0.7312 H   0  0  0  0  0  0  0  0  0  0  0  0
   -3.0322    0.1706    2.1939 H   0  0  0  0  0  0  0  0  0  0  0  0
   -1.9259   -0.2391   -0.2344 H   0  0  0  0  0  0  0  0  0  0  0  0
   -2.8145    2.6319   -0.3650 H   0  0  0  0  0  0  0  0  0  0  0  0
   -2.1954    0.8274   -2.6298 H   0  0  0  0  0  0  0  0  0  0  0  0
   -1.8203    2.5147   -2.3798 H   0  0  0  0  0  0  0  0  0  0  0  0
   -0.2375    0.1043   -1.8436 H   0  0  0  0  0  0  0  0  0  0  0  0
    0.3107    1.7457   -1.9987 H   0  0  0  0  0  0  0  0  0  0  0  0
    0.2835    0.1505    0.3155 H   0  0  0  0  0  0  0  0  0  0  0  0
   -1.4578    2.4812    0.9756 H   0  0  0  0  0  0  0  0  0  0  0  0
   -0.9926    1.0191    1.9508 H   0  0  0  0  0  0  0  0  0  0  0  0
    1.2235    1.8092    1.4128 H   0  0  0  0  0  0  0  0  0  0  0  0
    0.1880    3.7801    0.8876 H   0  0  0  0  0  0  0  0  0  0  0  0
    2.1724    5.1402    0.4570 H   0  0  0  0  0  0  0  0  0  0  0  0
    1.8102    3.4093    2.5802 H   0  0  0  0  0  0  0  0  0  0  0  0
    3.0335    4.7427    2.4781 H   0  0  0  0  0  0  0  0  0  0  0  0
    3.4883    1.7712    2.0295 H   0  0  0  0  0  0  0  0  0  0  0  0
    3.9734    2.8785    3.3428 H   0  0  0  0  0  0  0  0  0  0  0  0
    5.6358    3.8256    2.1294 H   0  0  0  0  0  0  0  0  0  0  0  0
    5.5407    3.7388   -0.5357 H   0  0  0  0  0  0  0  0  0  0  0  0
    4.8568    5.0552    0.4538 H   0  0  0  0  0  0  0  0  0  0  0  0
    3.3880    2.6219   -0.6949 H   0  0  0  0  0  0  0  0  0  0  0  0
    3.3649    4.2866   -1.3143 H   0  0  0  0  0  0  0  0  0  0  0  0
    5.4306    1.2134    0.4805 H   0  0  0  0  0  0  0  0  0  0  0  0
    6.8106    2.3508    0.4599 H   0  0  0  0  0  0  0  0  0  0  0  0
    4.9847    0.8323    3.4854 H   0  0  0  0  0  0  0  0  0  0  0  0
    6.6266    0.1725    3.8908 H   0  0  0  0  0  0  0  0  0  0  0  0
    4.8447   -0.8244    1.6296 H   0  0  0  0  0  0  0  0  0  0  0  0
    5.1637   -1.5714    3.2512 H   0  0  0  0  0  0  0  0  0  0  0  0
    7.4248   -3.3900    1.2519 H   0  0  0  0  0  0  0  0  0  0  0  0
    6.0401   -2.6266    0.3060 H   0  0  0  0  0  0  0  0  0  0  0  0
    5.7669   -3.3633    1.9350 H   0  0  0  0  0  0  0  0  0  0  0  0
    6.6532   -0.4096    0.1870 H   0  0  0  0  0  0  0  0  0  0  0  0
    8.2992   -1.1078    0.5645 H   0  0  0  0  0  0  0  0  0  0  0  0
    8.4799    1.2462    1.2097 H   0  0  0  0  0  0  0  0  0  0  0  0
    8.2685    0.2319    2.6997 H   0  0  0  0  0  0  0  0  0  0  0  0
   -0.2896    4.2748   -1.0918 H   0  0  0  0  0  0  0  0  0  0  0  0
   -4.3484    0.7296   -2.1702 H   0  0  0  0  0  0  0  0  0  0  0  0
   -4.5919    2.4048   -1.6818 H   0  0  0  0  0  0  0  0  0  0  0  0
   -4.9052    1.1915   -0.4514 H   0  0  0  0  0  0  0  0  0  0  0  0
  1  2  1  0
  1  6  1  0
  2  3  1  0
  3  4  1  0
  3  7  1  0
  4  5  1  0
  5  6  1  0
  7  8  1  0
  7 12  1  0
  8  9  1  0
  9 10  1  0
 10 11  1  0
 11 12  1  0
 11 13  1  0
 13 14  1  0
 14 15  1  0
 14 19  1  0
 15 16  1  0
 15 37  1  0
 16 17  1  0
 17 18  1  0
 18 19  1  0
 18 20  1  0
 20 21  1  0
 21 22  1  0
 21 36  1  0
 22 23  1  0
 22 27  1  0
 23 24  1  0
 24 25  1  0
 25 26  1  0
 25 28  1  0
 26 27  1  0
 28 29  1  0
 29 30  1  0
 29 35  1  0
 30 31  1  0
 31 32  1  0
 32 33  1  0
 32 34  1  0
 34 35  1  0
  1 38  1  0
  1 39  1  0
  2 40  1  0
  2 41  1  0
  3 42  1  6
  4 43  1  0
  4 44  1  0
  5 45  1  0
  6 46  1  0
  6 47  1  0
  7 48  1  0
  8 49  1  0
  8 50  1  0
  9 51  1  0
  9 52  1  0
 10 53  1  0
 11 54  1  0
 12 55  1  0
 13 56  1  0
 14 57  1  6
 15 58  1  1
 16 59  1  0
 16 60  1  0
 17 61  1  0
 17 62  1  0
 18 63  1  0
 19 64  1  0
 19 65  1  0
 20 66  1  0
 21 67  1  0
 22 68  1  0
 23 69  1  0
 23 70  1  0
 24 71  1  0
 24 72  1  0
 25 73  1  0
 26 74  1  0
 26 75  1  0
 27 76  1  0
 27 77  1  0
 28 78  1  0
 28 79  1  0
 30 80  1  0
 30 81  1  0
 31 82  1  0
 31 83  1  0
 33 84  1  0
 33 85  1  0
 33 86  1  0
 34 87  1  0
 34 88  1  0
 35 89  1  0
 35 90  1  0
 36 91  1  0
 37 92  1  0
 37 93  1  0
 37 94  1  0
M  END
$$$$
SRC-ABL TYROSINE KINASE ANCESTOR
     RDKit          3D

 94 98  0  0  0  0  0  0  0  0999 V2000
    3.9674   -3.9054    3.0449 C   0  0  0  0  0  0  0  0  0  0  0  0
    3.3233   -3.2034    4.2357 C   0  0  0  0  0  0  0  0  0  0  0  0
    3.1225   -1.7370    3.9596 C   0  0  1  0  0  0  0  0  0  0  0  0
    4.0647   -1.3079    2.8675 C   0  0  0  0  0  0  0  0  0  0  0  0
    5.3697   -1.9244    3.1614 N   0  0  0  0  0  0  0  0  0  0  0  0
    5.3510   -3.3329    2.8180 C   0  0  0  0  0  0  0  0  0  0  0  0
    1.6748   -1.4113    3.6467 C   0  0  0  0  0  0  0  0  0  0  0  0
    1.1923   -2.1782    2.4420 C   0  0  0  0  0  0  0  0  0  0  0  0
   -0.2503   -1.7851    2.1401 C   0  0  0  0  0  0  0  0  0  0  0  0
   -0.2136   -0.3484    1.9001 N   0  0  0  0  0  0  0  0  0  0  0  0
    0.0501    0.2278    3.2337 C   0  0  0  0  0  0  0  0  0  0  0  0
    1.4600    0.0108    3.5484 N   0  0  0  0  0  0  0  0  0  0  0  0
   -0.3041    1.5920    3.2287 N   0  0  0  0  0  0  0  0  0  0  0  0
   -1.6773    1.8134    2.8980 C   0  0  1  0  0  0  0  0  0  0  0  0
   -2.7009    1.3560    3.8652 C   0  0  1  0  0  0  0  0  0  0  0  0
   -3.9053    2.2721    3.8321 C   0  0  0  0  0  0  0  0  0  0  0  0
   -4.3059    2.7158    2.4572 C   0  0  0  0  0  0  0  0  0  0  0  0
   -3.1411    3.3881    1.7372 C   0  0  0  0  0  0  0  0  0  0  0  0
   -1.9086    3.3205    2.6457 C   0  0  0  0  0  0  0  0  0  0  0  0
   -2.8476    2.6244    0.5424 N   0  0  0  0  0  0  0  0  0  0  0  0
   -1.8216    3.1742   -0.2799 C   0  0  0  0  0  0  0  0  0  0  0  0
   -1.5109    2.3784   -1.5293 C   0  0  0  0  0  0  0  0  0  0  0  0
   -2.7023    2.2292   -2.4479 C   0  0  0  0  0  0  0  0  0  0  0  0
   -2.2480    1.3071   -3.5891 C   0  0  0  0  0  0  0  0  0  0  0  0
   -1.0460    1.8249   -4.3073 C   0  0  0  0  0  0  0  0  0  0  0  0
   -0.8123    3.2492   -3.7892 C   0  0  0  0  0  0  0  0  0  0  0  0
   -0.5044    3.2341   -2.3131 C   0  0  0  0  0  0  0  0  0  0  0  0
    0.2117    1.0348   -4.0583 C   0  0  0  0  0  0  0  0  0  0  0  0
    0.0994   -0.3277   -4.4547 N   0  0  0  0  0  0  0  0  0  0  0  0
    1.3089   -1.0890   -4.2270 C   0  0  0  0  0  0  0  0  0  0  0  0
    1.2132   -2.5313   -4.5799 C   0  0  0  0  0  0  0  0  0  0  0  0
    0.4072   -2.8086   -5.7268 N   0  0  0  0  0  0  0  0  0  0  0  0
    1.1099   -2.9927   -6.9551 C   0  0  0  0  0  0  0  0  0  0  0  0
   -0.8099   -2.0732   -5.7990 C   0  0  0  0  0  0  0  0  0  0  0  0
   -0.5393   -0.5865   -5.6985 C   0  0  0  0  0  0  0  0  0  0  0  0
   -2.1422    4.4766   -0.7295 O   0  0  0  0  0  0  0  0  0  0  0  0
   -3.1222   -0.0880    3.7513 C   0  0  0  0  0  0  0  0  0  0  0  0
    4.0561   -4.9617    3.3174 H   0  0  0  0  0  0  0  0  0  0  0  0
    3.3500   -3.7319    2.1507 H   0  0  0  0  0  0  0  0  0  0  0  0
    2.3884   -3.7480    4.4271 H   0  0  0  0  0  0  0  0  0  0  0  0
    3.9589   -3.3144    5.1457 H   0  0  0  0  0  0  0  0  0  0  0  0
    3.4231   -1.1713    4.8657 H   0  0  0  0  0  0  0  0  0  0  0  0
    3.7370   -1.6376    1.8666 H   0  0  0  0  0  0  0  0  0  0  0  0
    4.2428   -0.2139    2.9168 H   0  0  0  0  0  0  0  0  0  0  0  0
    6.1372   -1.4197    2.6557 H   0  0  0  0  0  0  0  0  0  0  0  0
    5.5430   -3.4489    1.7226 H   0  0  0  0  0  0  0  0  0  0  0  0
    6.0702   -3.9486    3.3628 H   0  0  0  0  0  0  0  0  0  0  0  0
    1.0701   -1.7520    4.5191 H   0  0  0  0  0  0  0  0  0  0  0  0
    1.7598   -1.9970    1.5288 H   0  0  0  0  0  0  0  0  0  0  0  0
    1.1211   -3.2502    2.7449 H   0  0  0  0  0  0  0  0  0  0  0  0
   -0.8719   -1.9414    3.0550 H   0  0  0  0  0  0  0  0  0  0  0  0
   -0.6347   -2.2835    1.2470 H   0  0  0  0  0  0  0  0  0  0  0  0
    0.6498   -0.0951    1.3307 H   0  0  0  0  0  0  0  0  0  0  0  0
   -0.5398   -0.3627    3.9481 H   0  0  0  0  0  0  0  0  0  0  0  0
    2.0395    0.4073    2.7538 H   0  0  0  0  0  0  0  0  0  0  0  0
    0.2790    2.1580    2.5867 H   0  0  0  0  0  0  0  0  0  0  0  0
   -1.9433    1.3260    1.9041 H   0  0  0  0  0  0  0  0  0  0  0  0
   -2.2562    1.5032    4.8948 H   0  0  0  0  0  0  0  0  0  0  0  0
   -3.8731    3.1195    4.5074 H   0  0  0  0  0  0  0  0  0  0  0  0
   -4.7624    1.6147    4.1859 H   0  0  0  0  0  0  0  0  0  0  0  0
   -5.0826    3.4982    2.5901 H   0  0  0  0  0  0  0  0  0  0  0  0
   -4.7705    1.9152    1.8467 H   0  0  0  0  0  0  0  0  0  0  0  0
   -3.3438    4.4335    1.4774 H   0  0  0  0  0  0  0  0  0  0  0  0
   -1.0336    3.8200    2.2410 H   0  0  0  0  0  0  0  0  0  0  0  0
   -2.2259    3.7537    3.6229 H   0  0  0  0  0  0  0  0  0  0  0  0
   -3.7472    2.6248   -0.0180 H   0  0  0  0  0  0  0  0  0  0  0  0
   -0.9064    3.3153    0.3289 H   0  0  0  0  0  0  0  0  0  0  0  0
   -1.1325    1.3714   -1.3150 H   0  0  0  0  0  0  0  0  0  0  0  0
   -3.4921    1.6214   -1.9162 H   0  0  0  0  0  0  0  0  0  0  0  0
   -3.0957    3.1799   -2.8080 H   0  0  0  0  0  0  0  0  0  0  0  0
   -2.0921    0.3088   -3.1305 H   0  0  0  0  0  0  0  0  0  0  0  0
   -3.0805    1.2061   -4.3120 H   0  0  0  0  0  0  0  0  0  0  0  0
   -1.1997    1.9610   -5.4029 H   0  0  0  0  0  0  0  0  0  0  0  0
   -1.6509    3.9008   -4.0461 H   0  0  0  0  0  0  0  0  0  0  0  0
    0.1009    3.6663   -4.2809 H   0  0  0  0  0  0  0  0  0  0  0  0
   -0.5779    4.3030   -1.9859 H   0  0  0  0  0  0  0  0  0  0  0  0
    0.5270    2.9354   -2.0890 H   0  0  0  0  0  0  0  0  0  0  0  0
    0.5604    1.1162   -3.0094 H   0  0  0  0  0  0  0  0  0  0  0  0
    1.0388    1.4813   -4.6749 H   0  0  0  0  0  0  0  0  0  0  0  0
    2.1538   -0.5714   -4.7611 H   0  0  0  0  0  0  0  0  0  0  0  0
    1.5754   -1.0038   -3.1500 H   0  0  0  0  0  0  0  0  0  0  0  0
    2.2624   -2.8821   -4.8092 H   0  0  0  0  0  0  0  0  0  0  0  0
    0.8933   -3.1821   -3.7314 H   0  0  0  0  0  0  0  0  0  0  0  0
    2.1942   -2.9567   -6.7632 H   0  0  0  0  0  0  0  0  0  0  0  0
    0.9181   -4.0461   -7.3053 H   0  0  0  0  0  0  0  0  0  0  0  0
    0.7901   -2.3329   -7.7879 H   0  0  0  0  0  0  0  0  0  0  0  0
   -1.3061   -2.3444   -6.7547 H   0  0  0  0  0  0  0  0  0  0  0  0
   -1.4731   -2.4137   -4.9665 H   0  0  0  0  0  0  0  0  0  0  0  0
    0.1357   -0.3027   -6.5215 H   0  0  0  0  0  0  0  0  0  0  0  0
   -1.4826   -0.0066   -5.7345 H   0  0  0  0  0  0  0  0  0  0  0  0
   -3.1326    4.5815   -0.7321 H   0  0  0  0  0  0  0  0  0  0  0  0
   -4.2429   -0.0836    3.8232 H   0  0  0  0  0  0  0  0  0  0  0  0
   -2.7761   -0.5604    2.8361 H   0  0  0  0  0  0  0  0  0  0  0  0
   -2.7630   -0.6304    4.6431 H   0  0  0  0  0  0  0  0  0  0  0  0
  1  2  1  0
  1  6  1  0
  2  3  1  0
  3  4  1  0
  3  7  1  0
  4  5  1  0
  5  6  1  0
  7  8  1  0
  7 12  1  0
  8  9  1  0
  9 10  1  0
 10 11  1  0
 11 12  1  0
 11 13  1  0
 13 14  1  0
 14 15  1  0
 14 19  1  0
 15 16  1  0
 15 37  1  0
 16 17  1  0
 17 18  1  0
 18 19  1  0
 18 20  1  0
 20 21  1  0
 21 22  1  0
 21 36  1  0
 22 23  1  0
 22 27  1  0
 23 24  1  0
 24 25  1  0
 25 26  1  0
 25 28  1  0
 26 27  1  0
 28 29  1  0
 29 30  1  0
 29 35  1  0
 30 31  1  0
 31 32  1  0
 32 33  1  0
 32 34  1  0
 34 35  1  0
  1 38  1  0
  1 39  1  0
  2 40  1  0
  2 41  1  0
  3 42  1  1
  4 43  1  0
  4 44  1  0
  5 45  1  0
  6 46  1  0
  6 47  1  0
  7 48  1  0
  8 49  1  0
  8 50  1  0
  9 51  1  0
  9 52  1  0
 10 53  1  0
 11 54  1  0
 12 55  1  0
 13 56  1  0
 14 57  1  6
 15 58  1  1
 16 59  1  0
 16 60  1  0
 17 61  1  0
 17 62  1  0
 18 63  1  0
 19 64  1  0
 19 65  1  0
 20 66  1  0
 21 67  1  0
 22 68  1  0
 23 69  1  0
 23 70  1  0
 24 71  1  0
 24 72  1  0
 25 73  1  0
 26 74  1  0
 26 75  1  0
 27 76  1  0
 27 77  1  0
 28 78  1  0
 28 79  1  0
 30 80  1  0
 30 81  1  0
 31 82  1  0
 31 83  1  0
 33 84  1  0
 33 85  1  0
 33 86  1  0
 34 87  1  0
 34 88  1  0
 35 89  1  0
 35 90  1  0
 36 91  1  0
 37 92  1  0
 37 93  1  0
 37 94  1  0
M  END
$$$$
SRC-ABL TYROSINE KINASE ANCESTOR
     RDKit          3D

 94 98  0  0  0  0  0  0  0  0999 V2000
   -3.8544    2.5489    3.4113 C   0  0  0  0  0  0  0  0  0  0  0  0
   -3.4306    1.7237    2.2441 C   0  0  0  0  0  0  0  0  0  0  0  0
   -4.4642    0.6773    1.8389 C   0  0  1  0  0  0  0  0  0  0  0  0
   -5.8640    1.2417    1.8558 C   0  0  0  0  0  0  0  0  0  0  0  0
   -6.1404    1.7037    3.2059 N   0  0  0  0  0  0  0  0  0  0  0  0
   -5.3207    2.8916    3.4253 C   0  0  0  0  0  0  0  0  0  0  0  0
   -4.0729    0.1403    0.5000 C   0  0  0  0  0  0  0  0  0  0  0  0
   -5.0269   -0.9212   -0.0057 C   0  0  0  0  0  0  0  0  0  0  0  0
   -4.2752   -1.9926   -0.7693 C   0  0  0  0  0  0  0  0  0  0  0  0
   -3.2690   -2.6682    0.0334 N   0  0  0  0  0  0  0  0  0  0  0  0
   -2.7807   -1.8313    1.0631 C   0  0  0  0  0  0  0  0  0  0  0  0
   -2.7717   -0.4456    0.5435 N   0  0  0  0  0  0  0  0  0  0  0  0
   -1.4943   -2.0274    1.5875 N   0  0  0  0  0  0  0  0  0  0  0  0
   -1.0429   -3.2480    2.0909 C   0  0  1  0  0  0  0  0  0  0  0  0
   -0.8444   -4.3833    1.1561 C   0  0  1  0  0  0  0  0  0  0  0  0
    0.3887   -4.2254    0.2868 C   0  0  0  0  0  0  0  0  0  0  0  0
    1.0264   -2.8614    0.4769 C   0  0  0  0  0  0  0  0  0  0  0  0
    1.4245   -2.8030    1.9612 C   0  0  0  0  0  0  0  0  0  0  0  0
    0.2638   -2.9517    2.8609 C   0  0  0  0  0  0  0  0  0  0  0  0
    2.3265   -1.7335    2.1867 N   0  0  0  0  0  0  0  0  0  0  0  0
    1.8955   -0.4096    1.9703 C   0  0  0  0  0  0  0  0  0  0  0  0
    3.0046    0.6495    2.1084 C   0  0  0  0  0  0  0  0  0  0  0  0
    4.1189    0.4683    1.1468 C   0  0  0  0  0  0  0  0  0  0  0  0
    3.9597    1.1538   -0.1846 C   0  0  0  0  0  0  0  0  0  0  0  0
    3.3156    2.5145   -0.0552 C   0  0  0  0  0  0  0  0  0  0  0  0
    2.0137    2.4274    0.6591 C   0  0  0  0  0  0  0  0  0  0  0  0
    2.3643    2.0287    2.0972 C   0  0  0  0  0  0  0  0  0  0  0  0
    3.3360    3.2638   -1.3237 C   0  0  0  0  0  0  0  0  0  0  0  0
    2.6978    2.7086   -2.4663 N   0  0  0  0  0  0  0  0  0  0  0  0
    2.9532    3.6403   -3.5786 C   0  0  0  0  0  0  0  0  0  0  0  0
    2.5158    3.0105   -4.8640 C   0  0  0  0  0  0  0  0  0  0  0  0
    1.2262    2.3747   -4.7598 N   0  0  0  0  0  0  0  0  0  0  0  0
    0.5043    2.5930   -5.9874 C   0  0  0  0  0  0  0  0  0  0  0  0
    0.5337    2.9165   -3.6342 C   0  0  0  0  0  0  0  0  0  0  0  0
    1.2710    2.5739   -2.3513 C   0  0  0  0  0  0  0  0  0  0  0  0
    0.9434   -0.0813    2.9707 O   0  0  0  0  0  0  0  0  0  0  0  0
   -0.7515   -5.6693    1.9723 C   0  0  0  0  0  0  0  0  0  0  0  0
   -3.5447    2.1200    4.3920 H   0  0  0  0  0  0  0  0  0  0  0  0
   -3.3119    3.5399    3.3464 H   0  0  0  0  0  0  0  0  0  0  0  0
   -2.5095    1.1583    2.5188 H   0  0  0  0  0  0  0  0  0  0  0  0
   -3.1720    2.3423    1.3522 H   0  0  0  0  0  0  0  0  0  0  0  0
   -4.3992   -0.1146    2.6065 H   0  0  0  0  0  0  0  0  0  0  0  0
   -6.5511    0.4043    1.6404 H   0  0  0  0  0  0  0  0  0  0  0  0
   -5.9556    2.0875    1.1694 H   0  0  0  0  0  0  0  0  0  0  0  0
   -5.8731    0.9802    3.9145 H   0  0  0  0  0  0  0  0  0  0  0  0
   -5.5772    3.6510    2.6583 H   0  0  0  0  0  0  0  0  0  0  0  0
   -5.5726    3.2860    4.4186 H   0  0  0  0  0  0  0  0  0  0  0  0
   -4.0309    1.0037   -0.2136 H   0  0  0  0  0  0  0  0  0  0  0  0
   -5.6954   -0.4409   -0.7464 H   0  0  0  0  0  0  0  0  0  0  0  0
   -5.6127   -1.3824    0.7881 H   0  0  0  0  0  0  0  0  0  0  0  0
   -3.7864   -1.5758   -1.6720 H   0  0  0  0  0  0  0  0  0  0  0  0
   -5.0448   -2.6945   -1.1594 H   0  0  0  0  0  0  0  0  0  0  0  0
   -3.7740   -3.5224    0.3872 H   0  0  0  0  0  0  0  0  0  0  0  0
   -3.5783   -1.8138    1.8655 H   0  0  0  0  0  0  0  0  0  0  0  0
   -2.2279   -0.3871   -0.3415 H   0  0  0  0  0  0  0  0  0  0  0  0
   -1.3879   -1.3124    2.3753 H   0  0  0  0  0  0  0  0  0  0  0  0
   -1.7437   -3.6148    2.8940 H   0  0  0  0  0  0  0  0  0  0  0  0
   -1.6738   -4.5172    0.4786 H   0  0  0  0  0  0  0  0  0  0  0  0
    1.1255   -4.9890    0.5571 H   0  0  0  0  0  0  0  0  0  0  0  0
    0.1749   -4.3310   -0.7969 H   0  0  0  0  0  0  0  0  0  0  0  0
    0.4084   -2.0233    0.1644 H   0  0  0  0  0  0  0  0  0  0  0  0
    2.0026   -2.9250   -0.0550 H   0  0  0  0  0  0  0  0  0  0  0  0
    2.0442   -3.7494    2.0682 H   0  0  0  0  0  0  0  0  0  0  0  0
    0.0198   -2.1086    3.5234 H   0  0  0  0  0  0  0  0  0  0  0  0
    0.3956   -3.8235    3.5708 H   0  0  0  0  0  0  0  0  0  0  0  0
    2.9963   -1.8628    2.9769 H   0  0  0  0  0  0  0  0  0  0  0  0
    1.4940   -0.2731    0.9711 H   0  0  0  0  0  0  0  0  0  0  0  0
    3.4424    0.5648    3.1302 H   0  0  0  0  0  0  0  0  0  0  0  0
    4.2612   -0.6101    0.9685 H   0  0  0  0  0  0  0  0  0  0  0  0
    5.0698    0.8433    1.6015 H   0  0  0  0  0  0  0  0  0  0  0  0
    3.4142    0.5946   -0.9399 H   0  0  0  0  0  0  0  0  0  0  0  0
    4.9769    1.3280   -0.5928 H   0  0  0  0  0  0  0  0  0  0  0  0
    4.0067    3.0717    0.6536 H   0  0  0  0  0  0  0  0  0  0  0  0
    1.2618    1.7521    0.2513 H   0  0  0  0  0  0  0  0  0  0  0  0
    1.5773    3.4352    0.7500 H   0  0  0  0  0  0  0  0  0  0  0  0
    1.3971    1.9391    2.6290 H   0  0  0  0  0  0  0  0  0  0  0  0
    3.0424    2.7724    2.5072 H   0  0  0  0  0  0  0  0  0  0  0  0
    4.4070    3.5366   -1.5372 H   0  0  0  0  0  0  0  0  0  0  0  0
    2.8595    4.2775   -1.1132 H   0  0  0  0  0  0  0  0  0  0  0  0
    4.0509    3.8950   -3.6040 H   0  0  0  0  0  0  0  0  0  0  0  0
    2.3360    4.5352   -3.3889 H   0  0  0  0  0  0  0  0  0  0  0  0
    2.4391    3.7952   -5.6552 H   0  0  0  0  0  0  0  0  0  0  0  0
    3.3010    2.2856   -5.1721 H   0  0  0  0  0  0  0  0  0  0  0  0
    0.9078    1.8552   -6.7234 H   0  0  0  0  0  0  0  0  0  0  0  0
   -0.5776    2.4436   -5.8931 H   0  0  0  0  0  0  0  0  0  0  0  0
    0.7320    3.5980   -6.4372 H   0  0  0  0  0  0  0  0  0  0  0  0
   -0.4893    2.4476   -3.5357 H   0  0  0  0  0  0  0  0  0  0  0  0
    0.4063    4.0051   -3.7073 H   0  0  0  0  0  0  0  0  0  0  0  0
    0.9063    3.2326   -1.5411 H   0  0  0  0  0  0  0  0  0  0  0  0
    1.0354    1.5088   -2.0559 H   0  0  0  0  0  0  0  0  0  0  0  0
    1.3469   -0.1222    3.8601 H   0  0  0  0  0  0  0  0  0  0  0  0
   -0.6202   -6.5252    1.2522 H   0  0  0  0  0  0  0  0  0  0  0  0
    0.0160   -5.6498    2.7433 H   0  0  0  0  0  0  0  0  0  0  0  0
   -1.7655   -5.8573    2.4188 H   0  0  0  0  0  0  0  0  0  0  0  0
  1  2  1  0
  1  6  1  0
  2  3  1  0
  3  4  1  0
  3  7  1  0
  4  5  1  0
  5  6  1  0
  7  8  1  0
  7 12  1  0
  8  9  1  0
  9 10  1  0
 10 11  1  0
 11 12  1  0
 11 13  1  0
 13 14  1  0
 14 15  1  0
 14 19  1  0
 15 16  1  0
 15 37  1  0
 16 17  1  0
 17 18  1  0
 18 19  1  0
 18 20  1  0
 20 21  1  0
 21 22  1  0
 21 36  1  0
 22 23  1  0
 22 27  1  0
 23 24  1  0
 24 25  1  0
 25 26  1  0
 25 28  1  0
 26 27  1  0
 28 29  1  0
 29 30  1  0
 29 35  1  0
 30 31  1  0
 31 32  1  0
 32 33  1  0
 32 34  1  0
 34 35  1  0
  1 38  1  0
  1 39  1  0
  2 40  1  0
  2 41  1  0
  3 42  1  1
  4 43  1  0
  4 44  1  0
  5 45  1  0
  6 46  1  0
  6 47  1  0
  7 48  1  0
  8 49  1  0
  8 50  1  0
  9 51  1  0
  9 52  1  0
 10 53  1  0
 11 54  1  0
 12 55  1  0
 13 56  1  0
 14 57  1  1
 15 58  1  6
 16 59  1  0
 16 60  1  0
 17 61  1  0
 17 62  1  0
 18 63  1  0
 19 64  1  0
 19 65  1  0
 20 66  1  0
 21 67  1  0
 22 68  1  0
 23 69  1  0
 23 70  1  0
 24 71  1  0
 24 72  1  0
 25 73  1  0
 26 74  1  0
 26 75  1  0
 27 76  1  0
 27 77  1  0
 28 78  1  0
 28 79  1  0
 30 80  1  0
 30 81  1  0
 31 82  1  0
 31 83  1  0
 33 84  1  0
 33 85  1  0
 33 86  1  0
 34 87  1  0
 34 88  1  0
 35 89  1  0
 35 90  1  0
 36 91  1  0
 37 92  1  0
 37 93  1  0
 37 94  1  0
M  END
$$$$
SRC-ABL TYROSINE KINASE ANCESTOR
     RDKit          3D

 94 98  0  0  0  0  0  0  0  0999 V2000
   -3.0516   -2.9948    2.1463 C   0  0  0  0  0  0  0  0  0  0  0  0
   -2.3115   -1.6823    2.3999 C   0  0  0  0  0  0  0  0  0  0  0  0
   -3.3384   -0.7261    3.0187 C   0  0  1  0  0  0  0  0  0  0  0  0
   -3.5823   -1.2402    4.3989 C   0  0  0  0  0  0  0  0  0  0  0  0
   -3.1557   -2.6344    4.5610 N   0  0  0  0  0  0  0  0  0  0  0  0
   -3.6825   -3.4179    3.4562 C   0  0  0  0  0  0  0  0  0  0  0  0
   -2.9177    0.6949    2.9139 C   0  0  0  0  0  0  0  0  0  0  0  0
   -3.8944    1.6900    3.5090 C   0  0  0  0  0  0  0  0  0  0  0  0
   -3.5095    3.0556    2.9313 C   0  0  0  0  0  0  0  0  0  0  0  0
   -2.0888    3.1357    2.6633 N   0  0  0  0  0  0  0  0  0  0  0  0
   -1.4130    2.3591    3.6830 C   0  0  0  0  0  0  0  0  0  0  0  0
   -1.6000    0.9366    3.4910 N   0  0  0  0  0  0  0  0  0  0  0  0
   -0.0484    2.7703    3.8352 N   0  0  0  0  0  0  0  0  0  0  0  0
    0.7780    2.6614    2.6812 C   0  0  1  0  0  0  0  0  0  0  0  0
    2.1978    3.1514    2.9323 C   0  0  1  0  0  0  0  0  0  0  0  0
    2.7282    3.5809    1.5610 C   0  0  0  0  0  0  0  0  0  0  0  0
    2.1675    2.5895    0.5375 C   0  0  0  0  0  0  0  0  0  0  0  0
    2.0868    1.2163    1.2077 C   0  0  0  0  0  0  0  0  0  0  0  0
    0.9334    1.2102    2.1939 C   0  0  0  0  0  0  0  0  0  0  0  0
    1.8002    0.2511    0.1834 N   0  0  0  0  0  0  0  0  0  0  0  0
    1.8431   -1.0680    0.6374 C   0  0  0  0  0  0  0  0  0  0  0  0
    1.5463   -2.1328   -0.3990 C   0  0  0  0  0  0  0  0  0  0  0  0
    0.1789   -1.9965   -0.9886 C   0  0  0  0  0  0  0  0  0  0  0  0
   -0.0788   -2.8946   -2.1623 C   0  0  0  0  0  0  0  0  0  0  0  0
    0.9779   -2.9495   -3.1649 C   0  0  0  0  0  0  0  0  0  0  0  0
    2.2144   -2.1378   -2.8333 C   0  0  0  0  0  0  0  0  0  0  0  0
    2.6411   -2.2747   -1.4065 C   0  0  0  0  0  0  0  0  0  0  0  0
    0.5473   -2.5296   -4.5318 C   0  0  0  0  0  0  0  0  0  0  0  0
    0.0637   -1.2146   -4.7316 N   0  0  0  0  0  0  0  0  0  0  0  0
   -1.2125   -0.8720   -4.2074 C   0  0  0  0  0  0  0  0  0  0  0  0
   -1.8412    0.2853   -4.9941 C   0  0  0  0  0  0  0  0  0  0  0  0
   -0.8356    1.2276   -5.4130 N   0  0  0  0  0  0  0  0  0  0  0  0
   -0.0461    1.7219   -4.3008 C   0  0  0  0  0  0  0  0  0  0  0  0
   -0.0050    0.5786   -6.4094 C   0  0  0  0  0  0  0  0  0  0  0  0
    0.0929   -0.9056   -6.1476 C   0  0  0  0  0  0  0  0  0  0  0  0
    0.9432   -1.2605    1.6805 O   0  0  0  0  0  0  0  0  0  0  0  0
    2.2207    4.2895    3.9217 C   0  0  0  0  0  0  0  0  0  0  0  0
   -3.8111   -2.8703    1.3482 H   0  0  0  0  0  0  0  0  0  0  0  0
   -2.3238   -3.7779    1.8497 H   0  0  0  0  0  0  0  0  0  0  0  0
   -2.0533   -1.2823    1.4004 H   0  0  0  0  0  0  0  0  0  0  0  0
   -1.4756   -1.9103    3.0568 H   0  0  0  0  0  0  0  0  0  0  0  0
   -4.2660   -0.9280    2.4285 H   0  0  0  0  0  0  0  0  0  0  0  0
   -4.6854   -1.2496    4.6417 H   0  0  0  0  0  0  0  0  0  0  0  0
   -3.1364   -0.6445    5.2149 H   0  0  0  0  0  0  0  0  0  0  0  0
   -3.6285   -2.9747    5.4267 H   0  0  0  0  0  0  0  0  0  0  0  0
   -4.7900   -3.3789    3.4259 H   0  0  0  0  0  0  0  0  0  0  0  0
   -3.4242   -4.4852    3.6824 H   0  0  0  0  0  0  0  0  0  0  0  0
   -2.9168    0.9484    1.8145 H   0  0  0  0  0  0  0  0  0  0  0  0
   -4.8964    1.4583    3.0517 H   0  0  0  0  0  0  0  0  0  0  0  0
   -3.9054    1.7141    4.6021 H   0  0  0  0  0  0  0  0  0  0  0  0
   -3.7470    3.8257    3.6916 H   0  0  0  0  0  0  0  0  0  0  0  0
   -4.1045    3.3022    2.0256 H   0  0  0  0  0  0  0  0  0  0  0  0
   -1.8464    2.8243    1.6994 H   0  0  0  0  0  0  0  0  0  0  0  0
   -1.9271    2.6321    4.6320 H   0  0  0  0  0  0  0  0  0  0  0  0
   -1.6054    0.4418    4.4132 H   0  0  0  0  0  0  0  0  0  0  0  0
    0.4008    2.3667    4.6846 H   0  0  0  0  0  0  0  0  0  0  0  0
    0.3554    3.2754    1.8879 H   0  0  0  0  0  0  0  0  0  0  0  0
    2.7666    2.3096    3.3431 H   0  0  0  0  0  0  0  0  0  0  0  0
    2.2920    4.5701    1.3235 H   0  0  0  0  0  0  0  0  0  0  0  0
    3.8287    3.5489    1.5374 H   0  0  0  0  0  0  0  0  0  0  0  0
    1.2246    2.9034    0.0946 H   0  0  0  0  0  0  0  0  0  0  0  0
    2.9261    2.5101   -0.2716 H   0  0  0  0  0  0  0  0  0  0  0  0
    3.0160    1.0639    1.7521 H   0  0  0  0  0  0  0  0  0  0  0  0
    0.0070    0.8507    1.7413 H   0  0  0  0  0  0  0  0  0  0  0  0
    1.1718    0.5775    3.0643 H   0  0  0  0  0  0  0  0  0  0  0  0
    1.0183    0.5854   -0.3625 H   0  0  0  0  0  0  0  0  0  0  0  0
    2.8432   -1.3328    1.0514 H   0  0  0  0  0  0  0  0  0  0  0  0
    1.5317   -3.0800    0.1822 H   0  0  0  0  0  0  0  0  0  0  0  0
   -0.5937   -2.2705   -0.2218 H   0  0  0  0  0  0  0  0  0  0  0  0
    0.0199   -0.9501   -1.2508 H   0  0  0  0  0  0  0  0  0  0  0  0
   -0.1149   -3.9419   -1.6789 H   0  0  0  0  0  0  0  0  0  0  0  0
   -1.1253   -2.7828   -2.4885 H   0  0  0  0  0  0  0  0  0  0  0  0
    1.3437   -4.0250   -3.2876 H   0  0  0  0  0  0  0  0  0  0  0  0
    3.0286   -2.5530   -3.4629 H   0  0  0  0  0  0  0  0  0  0  0  0
    2.0794   -1.0958   -3.1866 H   0  0  0  0  0  0  0  0  0  0  0  0
    3.2308   -3.2081   -1.2876 H   0  0  0  0  0  0  0  0  0  0  0  0
    3.3669   -1.4387   -1.2047 H   0  0  0  0  0  0  0  0  0  0  0  0
    1.3590   -2.7915   -5.2980 H   0  0  0  0  0  0  0  0  0  0  0  0
   -0.2960   -3.2172   -4.9036 H   0  0  0  0  0  0  0  0  0  0  0  0
   -1.2577   -0.5526   -3.1650 H   0  0  0  0  0  0  0  0  0  0  0  0
   -1.9042   -1.7446   -4.4124 H   0  0  0  0  0  0  0  0  0  0  0  0
   -2.5521    0.8021   -4.3247 H   0  0  0  0  0  0  0  0  0  0  0  0
   -2.3998   -0.0554   -5.8752 H   0  0  0  0  0  0  0  0  0  0  0  0
   -0.2151    2.8074   -4.1476 H   0  0  0  0  0  0  0  0  0  0  0  0
    1.0278    1.6252   -4.6101 H   0  0  0  0  0  0  0  0  0  0  0  0
   -0.2246    1.1903   -3.3527 H   0  0  0  0  0  0  0  0  0  0  0  0
    0.9608    1.0853   -6.4749 H   0  0  0  0  0  0  0  0  0  0  0  0
   -0.4978    0.7064   -7.4013 H   0  0  0  0  0  0  0  0  0  0  0  0
    0.9959   -1.3057   -6.6529 H   0  0  0  0  0  0  0  0  0  0  0  0
   -0.7909   -1.3847   -6.6155 H   0  0  0  0  0  0  0  0  0  0  0  0
    0.9464   -2.1602    2.0537 H   0  0  0  0  0  0  0  0  0  0  0  0
    2.9714    5.0393    3.5632 H   0  0  0  0  0  0  0  0  0  0  0  0
    1.2698    4.8470    3.9849 H   0  0  0  0  0  0  0  0  0  0  0  0
    2.5832    3.9397    4.9057 H   0  0  0  0  0  0  0  0  0  0  0  0
  1  2  1  0
  1  6  1  0
  2  3  1  0
  3  4  1  0
  3  7  1  0
  4  5  1  0
  5  6  1  0
  7  8  1  0
  7 12  1  0
  8  9  1  0
  9 10  1  0
 10 11  1  0
 11 12  1  0
 11 13  1  0
 13 14  1  0
 14 15  1  0
 14 19  1  0
 15 16  1  0
 15 37  1  0
 16 17  1  0
 17 18  1  0
 18 19  1  0
 18 20  1  0
 20 21  1  0
 21 22  1  0
 21 36  1  0
 22 23  1  0
 22 27  1  0
 23 24  1  0
 24 25  1  0
 25 26  1  0
 25 28  1  0
 26 27  1  0
 28 29  1  0
 29 30  1  0
 29 35  1  0
 30 31  1  0
 31 32  1  0
 32 33  1  0
 32 34  1  0
 34 35  1  0
  1 38  1  0
  1 39  1  0
  2 40  1  0
  2 41  1  0
  3 42  1  6
  4 43  1  0
  4 44  1  0
  5 45  1  0
  6 46  1  0
  6 47  1  0
  7 48  1  0
  8 49  1  0
  8 50  1  0
  9 51  1  0
  9 52  1  0
 10 53  1  0
 11 54  1  0
 12 55  1  0
 13 56  1  0
 14 57  1  6
 15 58  1  1
 16 59  1  0
 16 60  1  0
 17 61  1  0
 17 62  1  0
 18 63  1  0
 19 64  1  0
 19 65  1  0
 20 66  1  0
 21 67  1  0
 22 68  1  0
 23 69  1  0
 23 70  1  0
 24 71  1  0
 24 72  1  0
 25 73  1  0
 26 74  1  0
 26 75  1  0
 27 76  1  0
 27 77  1  0
 28 78  1  0
 28 79  1  0
 30 80  1  0
 30 81  1  0
 31 82  1  0
 31 83  1  0
 33 84  1  0
 33 85  1  0
 33 86  1  0
 34 87  1  0
 34 88  1  0
 35 89  1  0
 35 90  1  0
 36 91  1  0
 37 92  1  0
 37 93  1  0
 37 94  1  0
M  END
$$$$
SRC-ABL TYROSINE KINASE ANCESTOR
     RDKit          3D

 94 98  0  0  0  0  0  0  0  0999 V2000
   -6.4005    0.0023    0.0502 C   0  0  0  0  0  0  0  0  0  0  0  0
   -5.8626    1.4124    0.2440 C   0  0  0  0  0  0  0  0  0  0  0  0
   -4.6217    1.3045    1.0960 C   0  0  1  0  0  0  0  0  0  0  0  0
   -3.6077    0.4865    0.3587 C   0  0  0  0  0  0  0  0  0  0  0  0
   -4.1340   -0.8864    0.3427 N   0  0  0  0  0  0  0  0  0  0  0  0
   -5.3221   -0.8973   -0.4968 C   0  0  0  0  0  0  0  0  0  0  0  0
   -4.1052    2.6908    1.4806 C   0  0  0  0  0  0  0  0  0  0  0  0
   -3.7945    3.4173    0.2220 C   0  0  0  0  0  0  0  0  0  0  0  0
   -2.8689    4.5690    0.4157 C   0  0  0  0  0  0  0  0  0  0  0  0
   -2.2791    4.6650    1.7069 N   0  0  0  0  0  0  0  0  0  0  0  0
   -1.9158    3.3804    2.2727 C   0  0  0  0  0  0  0  0  0  0  0  0
   -3.0338    2.4889    2.3896 N   0  0  0  0  0  0  0  0  0  0  0  0
   -0.9261    2.6956    1.4883 N   0  0  0  0  0  0  0  0  0  0  0  0
    0.3279    3.4276    1.3404 C   0  0  1  0  0  0  0  0  0  0  0  0
    0.9990    3.6763    2.6365 C   0  0  1  0  0  0  0  0  0  0  0  0
    2.4489    3.4485    2.7546 C   0  0  0  0  0  0  0  0  0  0  0  0
    3.1388    2.9703    1.5083 C   0  0  0  0  0  0  0  0  0  0  0  0
    2.2752    1.9888    0.7396 C   0  0  0  0  0  0  0  0  0  0  0  0
    1.0925    2.7749    0.2422 C   0  0  0  0  0  0  0  0  0  0  0  0
    1.9679    0.8896    1.5907 N   0  0  0  0  0  0  0  0  0  0  0  0
    1.1750   -0.1535    1.0138 C   0  0  0  0  0  0  0  0  0  0  0  0
    0.9415   -1.2933    2.0073 C   0  0  0  0  0  0  0  0  0  0  0  0
    2.2124   -1.9324    2.4682 C   0  0  0  0  0  0  0  0  0  0  0  0
    2.7048   -2.9847    1.4515 C   0  0  0  0  0  0  0  0  0  0  0  0
    1.6284   -3.9769    1.1913 C   0  0  0  0  0  0  0  0  0  0  0  0
    0.4080   -3.2911    0.5681 C   0  0  0  0  0  0  0  0  0  0  0  0
   -0.0967   -2.2645    1.5629 C   0  0  0  0  0  0  0  0  0  0  0  0
    2.0445   -5.1488    0.4018 C   0  0  0  0  0  0  0  0  0  0  0  0
    2.5373   -4.9574   -0.9179 N   0  0  0  0  0  0  0  0  0  0  0  0
    2.7345   -6.2806   -1.5679 C   0  0  0  0  0  0  0  0  0  0  0  0
    2.8081   -6.0432   -3.0386 C   0  0  0  0  0  0  0  0  0  0  0  0
    3.9271   -5.1498   -3.3273 N   0  0  0  0  0  0  0  0  0  0  0  0
    3.4195   -3.8470   -3.7788 C   0  0  0  0  0  0  0  0  0  0  0  0
    4.6859   -4.9364   -2.1347 C   0  0  0  0  0  0  0  0  0  0  0  0
    3.7838   -4.2726   -1.0655 C   0  0  0  0  0  0  0  0  0  0  0  0
    1.7736   -0.6121   -0.1516 O   0  0  0  0  0  0  0  0  0  0  0  0
    0.7288    5.1044    3.1458 C   0  0  0  0  0  0  0  0  0  0  0  0
   -6.8268   -0.3873    0.9772 H   0  0  0  0  0  0  0  0  0  0  0  0
   -7.1724    0.0869   -0.7459 H   0  0  0  0  0  0  0  0  0  0  0  0
   -6.6352    2.0326    0.7266 H   0  0  0  0  0  0  0  0  0  0  0  0
   -5.5617    1.8086   -0.7442 H   0  0  0  0  0  0  0  0  0  0  0  0
   -4.9281    0.7400    2.0134 H   0  0  0  0  0  0  0  0  0  0  0  0
   -2.6541    0.4467    0.9321 H   0  0  0  0  0  0  0  0  0  0  0  0
   -3.4659    0.7520   -0.6892 H   0  0  0  0  0  0  0  0  0  0  0  0
   -3.4319   -1.5017   -0.1251 H   0  0  0  0  0  0  0  0  0  0  0  0
   -5.7193   -1.9370   -0.4978 H   0  0  0  0  0  0  0  0  0  0  0  0
   -5.0916   -0.6558   -1.5468 H   0  0  0  0  0  0  0  0  0  0  0  0
   -4.9605    3.1847    1.9902 H   0  0  0  0  0  0  0  0  0  0  0  0
   -4.7926    3.7546   -0.1942 H   0  0  0  0  0  0  0  0  0  0  0  0
   -3.3800    2.7865   -0.6004 H   0  0  0  0  0  0  0  0  0  0  0  0
   -3.4484    5.5162    0.2500 H   0  0  0  0  0  0  0  0  0  0  0  0
   -2.0727    4.6120   -0.3734 H   0  0  0  0  0  0  0  0  0  0  0  0
   -2.7174    5.2995    2.3797 H   0  0  0  0  0  0  0  0  0  0  0  0
   -1.5868    3.6034    3.3115 H   0  0  0  0  0  0  0  0  0  0  0  0
   -3.4394    2.4638    3.3669 H   0  0  0  0  0  0  0  0  0  0  0  0
   -1.3376    2.4272    0.5895 H   0  0  0  0  0  0  0  0  0  0  0  0
    0.0224    4.4483    0.9255 H   0  0  0  0  0  0  0  0  0  0  0  0
    0.4412    3.0411    3.3978 H   0  0  0  0  0  0  0  0  0  0  0  0
    2.6199    2.6197    3.5090 H   0  0  0  0  0  0  0  0  0  0  0  0
    2.9557    4.3196    3.2101 H   0  0  0  0  0  0  0  0  0  0  0  0
    4.1440    2.5501    1.7221 H   0  0  0  0  0  0  0  0  0  0  0  0
    3.3032    3.8526    0.8531 H   0  0  0  0  0  0  0  0  0  0  0  0
    2.9082    1.6621   -0.1380 H   0  0  0  0  0  0  0  0  0  0  0  0
    0.4544    2.0067   -0.3044 H   0  0  0  0  0  0  0  0  0  0  0  0
    1.4488    3.5066   -0.5277 H   0  0  0  0  0  0  0  0  0  0  0  0
    1.5634    1.1462    2.5097 H   0  0  0  0  0  0  0  0  0  0  0  0
    0.1633    0.2371    0.7917 H   0  0  0  0  0  0  0  0  0  0  0  0
    0.5121   -0.7892    2.9320 H   0  0  0  0  0  0  0  0  0  0  0  0
    3.0036   -1.1843    2.5523 H   0  0  0  0  0  0  0  0  0  0  0  0
    2.0714   -2.4233    3.4292 H   0  0  0  0  0  0  0  0  0  0  0  0
    2.9917   -2.4717    0.5274 H   0  0  0  0  0  0  0  0  0  0  0  0
    3.5688   -3.4568    1.9099 H   0  0  0  0  0  0  0  0  0  0  0  0
    1.2468   -4.3433    2.1949 H   0  0  0  0  0  0  0  0  0  0  0  0
   -0.3564   -4.0599    0.4237 H   0  0  0  0  0  0  0  0  0  0  0  0
    0.6275   -2.7843   -0.3678 H   0  0  0  0  0  0  0  0  0  0  0  0
   -0.9117   -1.6881    1.0429 H   0  0  0  0  0  0  0  0  0  0  0  0
   -0.5491   -2.7385    2.4660 H   0  0  0  0  0  0  0  0  0  0  0  0
    1.1421   -5.8459    0.3661 H   0  0  0  0  0  0  0  0  0  0  0  0
    2.7881   -5.7765    0.9815 H   0  0  0  0  0  0  0  0  0  0  0  0
    1.8393   -6.8841   -1.3425 H   0  0  0  0  0  0  0  0  0  0  0  0
    3.5887   -6.7749   -1.1119 H   0  0  0  0  0  0  0  0  0  0  0  0
    2.9861   -7.0002   -3.5926 H   0  0  0  0  0  0  0  0  0  0  0  0
    1.8901   -5.5456   -3.3709 H   0  0  0  0  0  0  0  0  0  0  0  0
    4.1295   -3.0338   -3.5493 H   0  0  0  0  0  0  0  0  0  0  0  0
    2.4606   -3.6284   -3.2265 H   0  0  0  0  0  0  0  0  0  0  0  0
    3.2093   -3.8870   -4.8735 H   0  0  0  0  0  0  0  0  0  0  0  0
    5.4594   -4.1525   -2.3733 H   0  0  0  0  0  0  0  0  0  0  0  0
    5.2305   -5.7924   -1.7495 H   0  0  0  0  0  0  0  0  0  0  0  0
    3.5671   -3.2684   -1.5405 H   0  0  0  0  0  0  0  0  0  0  0  0
    4.4090   -4.2011   -0.1665 H   0  0  0  0  0  0  0  0  0  0  0  0
    1.1725   -0.4294   -0.9043 H   0  0  0  0  0  0  0  0  0  0  0  0
    1.6759    5.6291    3.3805 H   0  0  0  0  0  0  0  0  0  0  0  0
    0.1496    5.0947    4.0825 H   0  0  0  0  0  0  0  0  0  0  0  0
    0.2301    5.7131    2.3687 H   0  0  0  0  0  0  0  0  0  0  0  0
  1  2  1  0
  1  6  1  0
  2  3  1  0
  3  4  1  0
  3  7  1  0
  4  5  1  0
  5  6  1  0
  7  8  1  0
  7 12  1  0
  8  9  1  0
  9 10  1  0
 10 11  1  0
 11 12  1  0
 11 13  1  0
 13 14  1  0
 14 15  1  0
 14 19  1  0
 15 16  1  0
 15 37  1  0
 16 17  1  0
 17 18  1  0
 18 19  1  0
 18 20  1  0
 20 21  1  0
 21 22  1  0
 21 36  1  0
 22 23  1  0
 22 27  1  0
 23 24  1  0
 24 25  1  0
 25 26  1  0
 25 28  1  0
 26 27  1  0
 28 29  1  0
 29 30  1  0
 29 35  1  0
 30 31  1  0
 31 32  1  0
 32 33  1  0
 32 34  1  0
 34 35  1  0
  1 38  1  0
  1 39  1  0
  2 40  1  0
  2 41  1  0
  3 42  1  1
  4 43  1  0
  4 44  1  0
  5 45  1  0
  6 46  1  0
  6 47  1  0
  7 48  1  0
  8 49  1  0
  8 50  1  0
  9 51  1  0
  9 52  1  0
 10 53  1  0
 11 54  1  0
 12 55  1  0
 13 56  1  0
 14 57  1  6
 15 58  1  1
 16 59  1  0
 16 60  1  0
 17 61  1  0
 17 62  1  0
 18 63  1  0
 19 64  1  0
 19 65  1  0
 20 66  1  0
 21 67  1  0
 22 68  1  0
 23 69  1  0
 23 70  1  0
 24 71  1  0
 24 72  1  0
 25 73  1  0
 26 74  1  0
 26 75  1  0
 27 76  1  0
 27 77  1  0
 28 78  1  0
 28 79  1  0
 30 80  1  0
 30 81  1  0
 31 82  1  0
 31 83  1  0
 33 84  1  0
 33 85  1  0
 33 86  1  0
 34 87  1  0
 34 88  1  0
 35 89  1  0
 35 90  1  0
 36 91  1  0
 37 92  1  0
 37 93  1  0
 37 94  1  0
M  END
$$$$
SRC-ABL TYROSINE KINASE ANCESTOR
     RDKit          3D

 94 98  0  0  0  0  0  0  0  0999 V2000
    6.7359   -1.1760   -1.5686 C   0  0  0  0  0  0  0  0  0  0  0  0
    6.1082   -0.6253   -0.2796 C   0  0  0  0  0  0  0  0  0  0  0  0
    5.6593    0.7600   -0.6014 C   0  0  1  0  0  0  0  0  0  0  0  0
    4.5429    0.6203   -1.6349 C   0  0  0  0  0  0  0  0  0  0  0  0
    5.2036    0.1817   -2.8642 N   0  0  0  0  0  0  0  0  0  0  0  0
    5.7241   -1.1560   -2.6760 C   0  0  0  0  0  0  0  0  0  0  0  0
    5.0850    1.5144    0.5871 C   0  0  0  0  0  0  0  0  0  0  0  0
    6.0946    1.6412    1.6582 C   0  0  0  0  0  0  0  0  0  0  0  0
    5.6678    1.3459    3.0472 C   0  0  0  0  0  0  0  0  0  0  0  0
    4.3856    0.7079    3.1484 N   0  0  0  0  0  0  0  0  0  0  0  0
    3.4504    1.4394    2.2663 C   0  0  0  0  0  0  0  0  0  0  0  0
    3.8223    0.9505    0.9353 N   0  0  0  0  0  0  0  0  0  0  0  0
    2.1591    1.0056    2.6682 N   0  0  0  0  0  0  0  0  0  0  0  0
    1.0327    1.5787    2.0275 C   0  0  1  0  0  0  0  0  0  0  0  0
    0.9062    3.0690    2.2019 C   0  0  1  0  0  0  0  0  0  0  0  0
    0.3897    3.7278    0.9425 C   0  0  0  0  0  0  0  0  0  0  0  0
   -0.7628    3.0227    0.3365 C   0  0  0  0  0  0  0  0  0  0  0  0
   -0.5994    1.4940    0.2349 C   0  0  0  0  0  0  0  0  0  0  0  0
    0.9087    1.3002    0.5498 C   0  0  0  0  0  0  0  0  0  0  0  0
   -1.3093    0.9076    1.2831 N   0  0  0  0  0  0  0  0  0  0  0  0
   -1.7190   -0.4261    1.3304 C   0  0  0  0  0  0  0  0  0  0  0  0
   -0.8866   -1.4975    0.7190 C   0  0  0  0  0  0  0  0  0  0  0  0
   -1.5041   -2.8679    0.9691 C   0  0  0  0  0  0  0  0  0  0  0  0
   -2.7938   -3.0419    0.1799 C   0  0  0  0  0  0  0  0  0  0  0  0
   -2.5199   -3.1636   -1.2551 C   0  0  0  0  0  0  0  0  0  0  0  0
   -1.0659   -2.7328   -1.4822 C   0  0  0  0  0  0  0  0  0  0  0  0
   -0.8628   -1.3728   -0.8013 C   0  0  0  0  0  0  0  0  0  0  0  0
   -3.4291   -2.6370   -2.2797 C   0  0  0  0  0  0  0  0  0  0  0  0
   -3.7507   -1.2547   -2.3194 N   0  0  0  0  0  0  0  0  0  0  0  0
   -4.2312   -0.9069   -3.7061 C   0  0  0  0  0  0  0  0  0  0  0  0
   -4.1665    0.6120   -3.7351 C   0  0  0  0  0  0  0  0  0  0  0  0
   -4.9484    1.2497   -2.7266 N   0  0  0  0  0  0  0  0  0  0  0  0
   -4.4533    2.6099   -2.5474 C   0  0  0  0  0  0  0  0  0  0  0  0
   -4.9540    0.6199   -1.4428 C   0  0  0  0  0  0  0  0  0  0  0  0
   -4.9658   -0.8980   -1.5544 C   0  0  0  0  0  0  0  0  0  0  0  0
   -1.8095   -0.7634    2.7155 O   0  0  0  0  0  0  0  0  0  0  0  0
   -0.0344    3.3974    3.3683 C   0  0  0  0  0  0  0  0  0  0  0  0
    7.1014   -2.2065   -1.4074 H   0  0  0  0  0  0  0  0  0  0  0  0
    7.6165   -0.5701   -1.8531 H   0  0  0  0  0  0  0  0  0  0  0  0
    5.2373   -1.2809   -0.0691 H   0  0  0  0  0  0  0  0  0  0  0  0
    6.8793   -0.7293    0.4804 H   0  0  0  0  0  0  0  0  0  0  0  0
    6.4705    1.3155   -1.0770 H   0  0  0  0  0  0  0  0  0  0  0  0
    3.9727    1.5396   -1.7558 H   0  0  0  0  0  0  0  0  0  0  0  0
    3.9153   -0.2296   -1.2656 H   0  0  0  0  0  0  0  0  0  0  0  0
    4.4621    0.1038   -3.6181 H   0  0  0  0  0  0  0  0  0  0  0  0
    4.9374   -1.9073   -2.5177 H   0  0  0  0  0  0  0  0  0  0  0  0
    6.2741   -1.4239   -3.6174 H   0  0  0  0  0  0  0  0  0  0  0  0
    4.8569    2.5399    0.1713 H   0  0  0  0  0  0  0  0  0  0  0  0
    6.4948    2.6987    1.6684 H   0  0  0  0  0  0  0  0  0  0  0  0
    7.0273    1.0385    1.4637 H   0  0  0  0  0  0  0  0  0  0  0  0
    6.3900    0.7062    3.5938 H   0  0  0  0  0  0  0  0  0  0  0  0
    5.5944    2.2730    3.6884 H   0  0  0  0  0  0  0  0  0  0  0  0
    4.0018    0.8405    4.1092 H   0  0  0  0  0  0  0  0  0  0  0  0
    3.6511    2.5078    2.2876 H   0  0  0  0  0  0  0  0  0  0  0  0
    3.9313   -0.0931    0.9674 H   0  0  0  0  0  0  0  0  0  0  0  0
    2.0939   -0.0159    2.5920 H   0  0  0  0  0  0  0  0  0  0  0  0
    0.1367    1.1452    2.5199 H   0  0  0  0  0  0  0  0  0  0  0  0
    1.8740    3.5379    2.4516 H   0  0  0  0  0  0  0  0  0  0  0  0
   -0.0114    4.7294    1.2975 H   0  0  0  0  0  0  0  0  0  0  0  0
    1.2013    4.0245    0.2427 H   0  0  0  0  0  0  0  0  0  0  0  0
   -1.7098    3.2593    0.9003 H   0  0  0  0  0  0  0  0  0  0  0  0
   -0.9275    3.4698   -0.6709 H   0  0  0  0  0  0  0  0  0  0  0  0
   -0.8143    1.2529   -0.7928 H   0  0  0  0  0  0  0  0  0  0  0  0
    1.4900    2.0502   -0.0209 H   0  0  0  0  0  0  0  0  0  0  0  0
    1.2844    0.3280    0.2595 H   0  0  0  0  0  0  0  0  0  0  0  0
   -2.1115    1.5040    1.6091 H   0  0  0  0  0  0  0  0  0  0  0  0
   -2.7908   -0.5162    0.9876 H   0  0  0  0  0  0  0  0  0  0  0  0
    0.1215   -1.5407    1.1690 H   0  0  0  0  0  0  0  0  0  0  0  0
   -0.7930   -3.6968    0.7878 H   0  0  0  0  0  0  0  0  0  0  0  0
   -1.8082   -2.9583    2.0506 H   0  0  0  0  0  0  0  0  0  0  0  0
   -3.2053   -4.0353    0.6020 H   0  0  0  0  0  0  0  0  0  0  0  0
   -3.4641   -2.2763    0.5366 H   0  0  0  0  0  0  0  0  0  0  0  0
   -2.4542   -4.2949   -1.4632 H   0  0  0  0  0  0  0  0  0  0  0  0
   -0.9335   -2.5385   -2.5640 H   0  0  0  0  0  0  0  0  0  0  0  0
   -0.3467   -3.4854   -1.1700 H   0  0  0  0  0  0  0  0  0  0  0  0
    0.0461   -0.9460   -1.1988 H   0  0  0  0  0  0  0  0  0  0  0  0
   -1.7716   -0.8043   -1.1185 H   0  0  0  0  0  0  0  0  0  0  0  0
   -3.0515   -2.9437   -3.2874 H   0  0  0  0  0  0  0  0  0  0  0  0
   -4.4135   -3.1847   -2.1736 H   0  0  0  0  0  0  0  0  0  0  0  0
   -3.4842   -1.2820   -4.4330 H   0  0  0  0  0  0  0  0  0  0  0  0
   -5.2557   -1.2468   -3.8523 H   0  0  0  0  0  0  0  0  0  0  0  0
   -3.0921    0.9313   -3.6796 H   0  0  0  0  0  0  0  0  0  0  0  0
   -4.5716    0.8943   -4.7453 H   0  0  0  0  0  0  0  0  0  0  0  0
   -5.2859    3.3562   -2.4715 H   0  0  0  0  0  0  0  0  0  0  0  0
   -3.8705    2.7204   -1.5915 H   0  0  0  0  0  0  0  0  0  0  0  0
   -3.7957    2.9563   -3.3437 H   0  0  0  0  0  0  0  0  0  0  0  0
   -5.8619    0.9528   -0.8937 H   0  0  0  0  0  0  0  0  0  0  0  0
   -4.0679    0.9559   -0.8285 H   0  0  0  0  0  0  0  0  0  0  0  0
   -5.8309   -1.1236   -2.2283 H   0  0  0  0  0  0  0  0  0  0  0  0
   -5.0695   -1.3421   -0.5909 H   0  0  0  0  0  0  0  0  0  0  0  0
   -2.4986   -0.2491    3.1633 H   0  0  0  0  0  0  0  0  0  0  0  0
    0.2628    2.7836    4.2213 H   0  0  0  0  0  0  0  0  0  0  0  0
    0.1092    4.4646    3.6052 H   0  0  0  0  0  0  0  0  0  0  0  0
   -1.0938    3.2646    3.0699 H   0  0  0  0  0  0  0  0  0  0  0  0
  1  2  1  0
  1  6  1  0
  2  3  1  0
  3  4  1  0
  3  7  1  0
  4  5  1  0
  5  6  1  0
  7  8  1  0
  7 12  1  0
  8  9  1  0
  9 10  1  0
 10 11  1  0
 11 12  1  0
 11 13  1  0
 13 14  1  0
 14 15  1  0
 14 19  1  0
 15 16  1  0
 15 37  1  0
 16 17  1  0
 17 18  1  0
 18 19  1  0
 18 20  1  0
 20 21  1  0
 21 22  1  0
 21 36  1  0
 22 23  1  0
 22 27  1  0
 23 24  1  0
 24 25  1  0
 25 26  1  0
 25 28  1  0
 26 27  1  0
 28 29  1  0
 29 30  1  0
 29 35  1  0
 30 31  1  0
 31 32  1  0
 32 33  1  0
 32 34  1  0
 34 35  1  0
  1 38  1  0
  1 39  1  0
  2 40  1  0
  2 41  1  0
  3 42  1  6
  4 43  1  0
  4 44  1  0
  5 45  1  0
  6 46  1  0
  6 47  1  0
  7 48  1  0
  8 49  1  0
  8 50  1  0
  9 51  1  0
  9 52  1  0
 10 53  1  0
 11 54  1  0
 12 55  1  0
 13 56  1  0
 14 57  1  1
 15 58  1  1
 16 59  1  0
 16 60  1  0
 17 61  1  0
 17 62  1  0
 18 63  1  0
 19 64  1  0
 19 65  1  0
 20 66  1  0
 21 67  1  0
 22 68  1  0
 23 69  1  0
 23 70  1  0
 24 71  1  0
 24 72  1  0
 25 73  1  0
 26 74  1  0
 26 75  1  0
 27 76  1  0
 27 77  1  0
 28 78  1  0
 28 79  1  0
 30 80  1  0
 30 81  1  0
 31 82  1  0
 31 83  1  0
 33 84  1  0
 33 85  1  0
 33 86  1  0
 34 87  1  0
 34 88  1  0
 35 89  1  0
 35 90  1  0
 36 91  1  0
 37 92  1  0
 37 93  1  0
 37 94  1  0
M  END
$$$$
SRC-ABL TYROSINE KINASE ANCESTOR
     RDKit          3D

 94 98  0  0  0  0  0  0  0  0999 V2000
    2.2564    6.5460   -3.8851 C   0  0  0  0  0  0  0  0  0  0  0  0
    1.3462    5.3967   -4.1729 C   0  0  0  0  0  0  0  0  0  0  0  0
    1.9043    4.0441   -3.8920 C   0  0  1  0  0  0  0  0  0  0  0  0
    3.3871    3.9112   -4.1257 C   0  0  0  0  0  0  0  0  0  0  0  0
    3.9172    5.1040   -4.7685 N   0  0  0  0  0  0  0  0  0  0  0  0
    3.7192    6.1884   -3.8283 C   0  0  0  0  0  0  0  0  0  0  0  0
    1.4923    3.4544   -2.5622 C   0  0  0  0  0  0  0  0  0  0  0  0
    1.9061    4.2777   -1.3948 C   0  0  0  0  0  0  0  0  0  0  0  0
    1.4801    3.5778   -0.1255 C   0  0  0  0  0  0  0  0  0  0  0  0
    0.1443    3.0838   -0.1673 N   0  0  0  0  0  0  0  0  0  0  0  0
   -0.2041    2.3645   -1.3781 C   0  0  0  0  0  0  0  0  0  0  0  0
    0.0748    3.1616   -2.5367 N   0  0  0  0  0  0  0  0  0  0  0  0
    0.3127    1.0448   -1.4247 N   0  0  0  0  0  0  0  0  0  0  0  0
    0.0377    0.3175   -2.6398 C   0  0  1  0  0  0  0  0  0  0  0  0
    0.6702   -1.0672   -2.6082 C   0  0  1  0  0  0  0  0  0  0  0  0
   -0.2949   -2.1607   -2.9665 C   0  0  0  0  0  0  0  0  0  0  0  0
   -1.4766   -2.0656   -2.0285 C   0  0  0  0  0  0  0  0  0  0  0  0
   -2.1842   -0.7319   -2.1597 C   0  0  0  0  0  0  0  0  0  0  0  0
   -1.4191    0.2368   -3.0024 C   0  0  0  0  0  0  0  0  0  0  0  0
   -2.4882   -0.2079   -0.8244 N   0  0  0  0  0  0  0  0  0  0  0  0
   -3.3489   -1.1040   -0.0950 C   0  0  0  0  0  0  0  0  0  0  0  0
   -3.6316   -0.5658    1.3166 C   0  0  0  0  0  0  0  0  0  0  0  0
   -2.3522   -0.4204    2.0675 C   0  0  0  0  0  0  0  0  0  0  0  0
   -2.4325   -0.6130    3.5425 C   0  0  0  0  0  0  0  0  0  0  0  0
   -3.2574   -1.8202    3.9381 C   0  0  0  0  0  0  0  0  0  0  0  0
   -3.6832   -2.5654    2.7189 C   0  0  0  0  0  0  0  0  0  0  0  0
   -4.5874   -1.5884    1.9367 C   0  0  0  0  0  0  0  0  0  0  0  0
   -2.6033   -2.6475    5.0170 C   0  0  0  0  0  0  0  0  0  0  0  0
   -1.3691   -3.1920    4.7543 N   0  0  0  0  0  0  0  0  0  0  0  0
   -1.2544   -4.2477    3.8382 C   0  0  0  0  0  0  0  0  0  0  0  0
   -0.0502   -4.0457    2.9190 C   0  0  0  0  0  0  0  0  0  0  0  0
    0.9634   -3.2540    3.5425 N   0  0  0  0  0  0  0  0  0  0  0  0
    1.2001   -1.9726    2.9547 C   0  0  0  0  0  0  0  0  0  0  0  0
    1.0274   -3.3100    4.9665 C   0  0  0  0  0  0  0  0  0  0  0  0
   -0.3064   -3.0996    5.6627 C   0  0  0  0  0  0  0  0  0  0  0  0
   -4.5783   -1.2654   -0.7544 O   0  0  0  0  0  0  0  0  0  0  0  0
    1.8492   -1.1404   -3.5778 C   0  0  0  0  0  0  0  0  0  0  0  0
    2.1458    7.3334   -4.6690 H   0  0  0  0  0  0  0  0  0  0  0  0
    1.9688    7.0719   -2.9281 H   0  0  0  0  0  0  0  0  0  0  0  0
    1.0586    5.4561   -5.2637 H   0  0  0  0  0  0  0  0  0  0  0  0
    0.3720    5.4944   -3.6415 H   0  0  0  0  0  0  0  0  0  0  0  0
    1.4428    3.3366   -4.6459 H   0  0  0  0  0  0  0  0  0  0  0  0
    3.8905    3.8391   -3.1476 H   0  0  0  0  0  0  0  0  0  0  0  0
    3.6664    2.9915   -4.6891 H   0  0  0  0  0  0  0  0  0  0  0  0
    4.8996    4.9416   -5.0199 H   0  0  0  0  0  0  0  0  0  0  0  0
    4.3552    7.0402   -4.1973 H   0  0  0  0  0  0  0  0  0  0  0  0
    4.0422    5.8954   -2.8100 H   0  0  0  0  0  0  0  0  0  0  0  0
    2.0371    2.4845   -2.4826 H   0  0  0  0  0  0  0  0  0  0  0  0
    1.5269    5.3025   -1.3706 H   0  0  0  0  0  0  0  0  0  0  0  0
    3.0348    4.2756   -1.3557 H   0  0  0  0  0  0  0  0  0  0  0  0
    2.2203    2.7917    0.1540 H   0  0  0  0  0  0  0  0  0  0  0  0
    1.5221    4.3442    0.6783 H   0  0  0  0  0  0  0  0  0  0  0  0
    0.0183    2.4139    0.6239 H   0  0  0  0  0  0  0  0  0  0  0  0
   -1.3251    2.2718   -1.3330 H   0  0  0  0  0  0  0  0  0  0  0  0
   -0.5069    4.0287   -2.5041 H   0  0  0  0  0  0  0  0  0  0  0  0
    1.3354    1.0397   -1.2473 H   0  0  0  0  0  0  0  0  0  0  0  0
    0.5298    0.8707   -3.4646 H   0  0  0  0  0  0  0  0  0  0  0  0
    1.0375   -1.2517   -1.5862 H   0  0  0  0  0  0  0  0  0  0  0  0
   -0.6763   -2.0709   -4.0068 H   0  0  0  0  0  0  0  0  0  0  0  0
    0.2051   -3.1166   -2.8124 H   0  0  0  0  0  0  0  0  0  0  0  0
   -1.0813   -2.1454   -0.9965 H   0  0  0  0  0  0  0  0  0  0  0  0
   -2.1343   -2.9338   -2.2239 H   0  0  0  0  0  0  0  0  0  0  0  0
   -3.1575   -0.9297   -2.6502 H   0  0  0  0  0  0  0  0  0  0  0  0
   -1.4503   -0.1532   -4.0516 H   0  0  0  0  0  0  0  0  0  0  0  0
   -1.8876    1.2290   -2.9319 H   0  0  0  0  0  0  0  0  0  0  0  0
   -1.5906   -0.1122   -0.3202 H   0  0  0  0  0  0  0  0  0  0  0  0
   -2.8917   -2.0934   -0.0562 H   0  0  0  0  0  0  0  0  0  0  0  0
   -4.1608    0.3858    1.2304 H   0  0  0  0  0  0  0  0  0  0  0  0
   -2.0058    0.6364    1.9040 H   0  0  0  0  0  0  0  0  0  0  0  0
   -1.5508   -1.0818    1.6703 H   0  0  0  0  0  0  0  0  0  0  0  0
   -2.7802    0.3238    4.0454 H   0  0  0  0  0  0  0  0  0  0  0  0
   -1.3991   -0.8119    3.9158 H   0  0  0  0  0  0  0  0  0  0  0  0
   -4.1912   -1.3868    4.4160 H   0  0  0  0  0  0  0  0  0  0  0  0
   -2.8028   -2.7089    2.0267 H   0  0  0  0  0  0  0  0  0  0  0  0
   -4.2221   -3.4864    2.9286 H   0  0  0  0  0  0  0  0  0  0  0  0
   -5.1613   -2.1028    1.1619 H   0  0  0  0  0  0  0  0  0  0  0  0
   -5.1934   -1.0466    2.6703 H   0  0  0  0  0  0  0  0  0  0  0  0
   -2.6271   -1.9681    5.9341 H   0  0  0  0  0  0  0  0  0  0  0  0
   -3.3796   -3.4293    5.2852 H   0  0  0  0  0  0  0  0  0  0  0  0
   -0.9922   -5.1755    4.4571 H   0  0  0  0  0  0  0  0  0  0  0  0
   -2.1377   -4.5608    3.2800 H   0  0  0  0  0  0  0  0  0  0  0  0
    0.3901   -5.0386    2.6443 H   0  0  0  0  0  0  0  0  0  0  0  0
   -0.4161   -3.5486    2.0024 H   0  0  0  0  0  0  0  0  0  0  0  0
    2.3130   -1.9059    2.7774 H   0  0  0  0  0  0  0  0  0  0  0  0
    0.9636   -1.1048    3.6232 H   0  0  0  0  0  0  0  0  0  0  0  0
    0.6988   -1.8574    1.9709 H   0  0  0  0  0  0  0  0  0  0  0  0
    1.7006   -2.4754    5.2909 H   0  0  0  0  0  0  0  0  0  0  0  0
    1.5398   -4.2390    5.2947 H   0  0  0  0  0  0  0  0  0  0  0  0
   -0.2974   -2.1690    6.2799 H   0  0  0  0  0  0  0  0  0  0  0  0
   -0.3843   -3.9211    6.4223 H   0  0  0  0  0  0  0  0  0  0  0  0
   -4.9959   -0.3538   -0.7832 H   0  0  0  0  0  0  0  0  0  0  0  0
    2.7968   -0.8730   -3.0612 H   0  0  0  0  0  0  0  0  0  0  0  0
    1.8959   -2.0765   -4.1389 H   0  0  0  0  0  0  0  0  0  0  0  0
    1.7053   -0.3100   -4.3273 H   0  0  0  0  0  0  0  0  0  0  0  0
  1  2  1  0
  1  6  1  0
  2  3  1  0
  3  4  1  0
  3  7  1  0
  4  5  1  0
  5  6  1  0
  7  8  1  0
  7 12  1  0
  8  9  1  0
  9 10  1  0
 10 11  1  0
 11 12  1  0
 11 13  1  0
 13 14  1  0
 14 15  1  0
 14 19  1  0
 15 16  1  0
 15 37  1  0
 16 17  1  0
 17 18  1  0
 18 19  1  0
 18 20  1  0
 20 21  1  0
 21 22  1  0
 21 36  1  0
 22 23  1  0
 22 27  1  0
 23 24  1  0
 24 25  1  0
 25 26  1  0
 25 28  1  0
 26 27  1  0
 28 29  1  0
 29 30  1  0
 29 35  1  0
 30 31  1  0
 31 32  1  0
 32 33  1  0
 32 34  1  0
 34 35  1  0
  1 38  1  0
  1 39  1  0
  2 40  1  0
  2 41  1  0
  3 42  1  6
  4 43  1  0
  4 44  1  0
  5 45  1  0
  6 46  1  0
  6 47  1  0
  7 48  1  0
  8 49  1  0
  8 50  1  0
  9 51  1  0
  9 52  1  0
 10 53  1  0
 11 54  1  0
 12 55  1  0
 13 56  1  0
 14 57  1  6
 15 58  1  1
 16 59  1  0
 16 60  1  0
 17 61  1  0
 17 62  1  0
 18 63  1  0
 19 64  1  0
 19 65  1  0
 20 66  1  0
 21 67  1  0
 22 68  1  0
 23 69  1  0
 23 70  1  0
 24 71  1  0
 24 72  1  0
 25 73  1  0
 26 74  1  0
 26 75  1  0
 27 76  1  0
 27 77  1  0
 28 78  1  0
 28 79  1  0
 30 80  1  0
 30 81  1  0
 31 82  1  0
 31 83  1  0
 33 84  1  0
 33 85  1  0
 33 86  1  0
 34 87  1  0
 34 88  1  0
 35 89  1  0
 35 90  1  0
 36 91  1  0
 37 92  1  0
 37 93  1  0
 37 94  1  0
M  END
$$$$
SRC-ABL TYROSINE KINASE ANCESTOR
     RDKit          3D

 94 98  0  0  0  0  0  0  0  0999 V2000
    1.9223   -3.0789   -3.7466 C   0  0  0  0  0  0  0  0  0  0  0  0
    0.8769   -2.9047   -2.6901 C   0  0  0  0  0  0  0  0  0  0  0  0
    0.0167   -4.1346   -2.4727 C   0  0  1  0  0  0  0  0  0  0  0  0
    0.7698   -5.4146   -2.6301 C   0  0  0  0  0  0  0  0  0  0  0  0
    1.5550   -5.4398   -3.8564 N   0  0  0  0  0  0  0  0  0  0  0  0
    2.5870   -4.4321   -3.7243 C   0  0  0  0  0  0  0  0  0  0  0  0
   -0.4951   -4.0610   -1.0385 C   0  0  0  0  0  0  0  0  0  0  0  0
   -1.3616   -5.2519   -0.7569 C   0  0  0  0  0  0  0  0  0  0  0  0
   -2.2227   -5.1075    0.4565 C   0  0  0  0  0  0  0  0  0  0  0  0
   -2.6961   -3.7874    0.7252 N   0  0  0  0  0  0  0  0  0  0  0  0
   -1.6646   -2.8052    0.5436 C   0  0  0  0  0  0  0  0  0  0  0  0
   -1.3034   -2.8771   -0.8846 N   0  0  0  0  0  0  0  0  0  0  0  0
   -2.0940   -1.4658    0.7648 N   0  0  0  0  0  0  0  0  0  0  0  0
   -2.6097   -1.1873    2.0874 C   0  0  1  0  0  0  0  0  0  0  0  0
   -1.6629   -1.4007    3.1990 C   0  0  1  0  0  0  0  0  0  0  0  0
   -1.2315   -0.2405    4.0045 C   0  0  0  0  0  0  0  0  0  0  0  0
   -1.9051    1.0600    3.7644 C   0  0  0  0  0  0  0  0  0  0  0  0
   -2.3308    1.2888    2.3366 C   0  0  0  0  0  0  0  0  0  0  0  0
   -3.2800    0.1517    2.0231 C   0  0  0  0  0  0  0  0  0  0  0  0
   -1.2656    1.3081    1.3921 N   0  0  0  0  0  0  0  0  0  0  0  0
   -0.2858    2.3366    1.5618 C   0  0  0  0  0  0  0  0  0  0  0  0
   -0.8863    3.7288    1.4645 C   0  0  0  0  0  0  0  0  0  0  0  0
    0.2048    4.7486    1.6518 C   0  0  0  0  0  0  0  0  0  0  0  0
    0.6423    5.4706    0.4362 C   0  0  0  0  0  0  0  0  0  0  0  0
    0.4086    4.8608   -0.8799 C   0  0  0  0  0  0  0  0  0  0  0  0
   -0.7723    3.9045   -0.9587 C   0  0  0  0  0  0  0  0  0  0  0  0
   -1.6773    3.9378    0.2195 C   0  0  0  0  0  0  0  0  0  0  0  0
    1.5729    4.3300   -1.6604 C   0  0  0  0  0  0  0  0  0  0  0  0
    2.3608    3.2932   -1.1118 N   0  0  0  0  0  0  0  0  0  0  0  0
    3.2388    2.8464   -2.2436 C   0  0  0  0  0  0  0  0  0  0  0  0
    3.8363    1.5061   -1.8303 C   0  0  0  0  0  0  0  0  0  0  0  0
    4.1838    1.5769   -0.4154 N   0  0  0  0  0  0  0  0  0  0  0  0
    5.1976    0.5953   -0.1593 C   0  0  0  0  0  0  0  0  0  0  0  0
    4.6023    2.9385   -0.1787 C   0  0  0  0  0  0  0  0  0  0  0  0
    3.3686    3.8293   -0.1742 C   0  0  0  0  0  0  0  0  0  0  0  0
    0.5028    2.2192    2.6956 O   0  0  0  0  0  0  0  0  0  0  0  0
   -2.1419   -2.5503    4.1000 C   0  0  0  0  0  0  0  0  0  0  0  0
    1.5265   -2.8628   -4.7575 H   0  0  0  0  0  0  0  0  0  0  0  0
    2.7427   -2.3369   -3.5340 H   0  0  0  0  0  0  0  0  0  0  0  0
    0.1916   -2.0730   -3.0198 H   0  0  0  0  0  0  0  0  0  0  0  0
    1.3047   -2.5804   -1.7312 H   0  0  0  0  0  0  0  0  0  0  0  0
   -0.8392   -4.0997   -3.1692 H   0  0  0  0  0  0  0  0  0  0  0  0
    0.0306   -6.2393   -2.7085 H   0  0  0  0  0  0  0  0  0  0  0  0
    1.4012   -5.6429   -1.7418 H   0  0  0  0  0  0  0  0  0  0  0  0
    2.0126   -6.3786   -3.8999 H   0  0  0  0  0  0  0  0  0  0  0  0
    3.1766   -4.5664   -2.8104 H   0  0  0  0  0  0  0  0  0  0  0  0
    3.2739   -4.4814   -4.5896 H   0  0  0  0  0  0  0  0  0  0  0  0
    0.3360   -3.9885   -0.3303 H   0  0  0  0  0  0  0  0  0  0  0  0
   -1.9410   -5.5331   -1.6633 H   0  0  0  0  0  0  0  0  0  0  0  0
   -0.6483   -6.1045   -0.5635 H   0  0  0  0  0  0  0  0  0  0  0  0
   -3.1456   -5.7309    0.2647 H   0  0  0  0  0  0  0  0  0  0  0  0
   -1.7863   -5.5800    1.3765 H   0  0  0  0  0  0  0  0  0  0  0  0
   -3.5679   -3.5340    0.2532 H   0  0  0  0  0  0  0  0  0  0  0  0
   -0.7714   -3.0626    1.1222 H   0  0  0  0  0  0  0  0  0  0  0  0
   -2.2174   -2.9805   -1.3916 H   0  0  0  0  0  0  0  0  0  0  0  0
   -2.7418   -1.1058    0.0594 H   0  0  0  0  0  0  0  0  0  0  0  0
   -3.4599   -1.9280    2.2068 H   0  0  0  0  0  0  0  0  0  0  0  0
   -0.7202   -1.8326    2.7346 H   0  0  0  0  0  0  0  0  0  0  0  0
   -1.4330   -0.4892    5.0930 H   0  0  0  0  0  0  0  0  0  0  0  0
   -0.1070   -0.1025    4.0170 H   0  0  0  0  0  0  0  0  0  0  0  0
   -2.8525    1.1148    4.3637 H   0  0  0  0  0  0  0  0  0  0  0  0
   -1.2742    1.8735    4.1692 H   0  0  0  0  0  0  0  0  0  0  0  0
   -2.9120    2.2371    2.3041 H   0  0  0  0  0  0  0  0  0  0  0  0
   -4.1737    0.2045    2.7005 H   0  0  0  0  0  0  0  0  0  0  0  0
   -3.6679    0.3064    0.9922 H   0  0  0  0  0  0  0  0  0  0  0  0
   -0.7765    0.3678    1.4713 H   0  0  0  0  0  0  0  0  0  0  0  0
    0.4366    2.2336    0.7034 H   0  0  0  0  0  0  0  0  0  0  0  0
   -1.5856    3.8136    2.3275 H   0  0  0  0  0  0  0  0  0  0  0  0
   -0.1153    5.5137    2.4253 H   0  0  0  0  0  0  0  0  0  0  0  0
    1.0744    4.2547    2.1259 H   0  0  0  0  0  0  0  0  0  0  0  0
    0.1403    6.5090    0.4957 H   0  0  0  0  0  0  0  0  0  0  0  0
    1.7123    5.7377    0.5557 H   0  0  0  0  0  0  0  0  0  0  0  0
    0.0434    5.7312   -1.5431 H   0  0  0  0  0  0  0  0  0  0  0  0
   -0.3400    2.8881   -1.0553 H   0  0  0  0  0  0  0  0  0  0  0  0
   -1.3918    4.0608   -1.8660 H   0  0  0  0  0  0  0  0  0  0  0  0
   -2.3735    3.0762    0.1215 H   0  0  0  0  0  0  0  0  0  0  0  0
   -2.2503    4.8670    0.3295 H   0  0  0  0  0  0  0  0  0  0  0  0
    1.1902    4.0813   -2.6901 H   0  0  0  0  0  0  0  0  0  0  0  0
    2.2255    5.2402   -1.8617 H   0  0  0  0  0  0  0  0  0  0  0  0
    2.6713    2.6901   -3.1551 H   0  0  0  0  0  0  0  0  0  0  0  0
    3.9988    3.6269   -2.4198 H   0  0  0  0  0  0  0  0  0  0  0  0
    3.0492    0.7474   -1.9794 H   0  0  0  0  0  0  0  0  0  0  0  0
    4.6858    1.3315   -2.4882 H   0  0  0  0  0  0  0  0  0  0  0  0
    6.0143    1.0121    0.4543 H   0  0  0  0  0  0  0  0  0  0  0  0
    4.7195   -0.2073    0.4752 H   0  0  0  0  0  0  0  0  0  0  0  0
    5.5572    0.0800   -1.0722 H   0  0  0  0  0  0  0  0  0  0  0  0
    5.0483    2.9932    0.8331 H   0  0  0  0  0  0  0  0  0  0  0  0
    5.3706    3.2988   -0.8736 H   0  0  0  0  0  0  0  0  0  0  0  0
    2.9569    3.7645    0.8418 H   0  0  0  0  0  0  0  0  0  0  0  0
    3.6405    4.8667   -0.3921 H   0  0  0  0  0  0  0  0  0  0  0  0
    1.3819    1.7961    2.5278 H   0  0  0  0  0  0  0  0  0  0  0  0
   -1.3042   -2.7407    4.8305 H   0  0  0  0  0  0  0  0  0  0  0  0
   -3.0681   -2.3028    4.6330 H   0  0  0  0  0  0  0  0  0  0  0  0
   -2.1900   -3.4354    3.4534 H   0  0  0  0  0  0  0  0  0  0  0  0
  1  2  1  0
  1  6  1  0
  2  3  1  0
  3  4  1  0
  3  7  1  0
  4  5  1  0
  5  6  1  0
  7  8  1  0
  7 12  1  0
  8  9  1  0
  9 10  1  0
 10 11  1  0
 11 12  1  0
 11 13  1  0
 13 14  1  0
 14 15  1  0
 14 19  1  0
 15 16  1  0
 15 37  1  0
 16 17  1  0
 17 18  1  0
 18 19  1  0
 18 20  1  0
 20 21  1  0
 21 22  1  0
 21 36  1  0
 22 23  1  0
 22 27  1  0
 23 24  1  0
 24 25  1  0
 25 26  1  0
 25 28  1  0
 26 27  1  0
 28 29  1  0
 29 30  1  0
 29 35  1  0
 30 31  1  0
 31 32  1  0
 32 33  1  0
 32 34  1  0
 34 35  1  0
  1 38  1  0
  1 39  1  0
  2 40  1  0
  2 41  1  0
  3 42  1  6
  4 43  1  0
  4 44  1  0
  5 45  1  0
  6 46  1  0
  6 47  1  0
  7 48  1  0
  8 49  1  0
  8 50  1  0
  9 51  1  0
  9 52  1  0
 10 53  1  0
 11 54  1  0
 12 55  1  0
 13 56  1  0
 14 57  1  1
 15 58  1  6
 16 59  1  0
 16 60  1  0
 17 61  1  0
 17 62  1  0
 18 63  1  0
 19 64  1  0
 19 65  1  0
 20 66  1  0
 21 67  1  0
 22 68  1  0
 23 69  1  0
 23 70  1  0
 24 71  1  0
 24 72  1  0
 25 73  1  0
 26 74  1  0
 26 75  1  0
 27 76  1  0
 27 77  1  0
 28 78  1  0
 28 79  1  0
 30 80  1  0
 30 81  1  0
 31 82  1  0
 31 83  1  0
 33 84  1  0
 33 85  1  0
 33 86  1  0
 34 87  1  0
 34 88  1  0
 35 89  1  0
 35 90  1  0
 36 91  1  0
 37 92  1  0
 37 93  1  0
 37 94  1  0
M  END
$$$$
SRC-ABL TYROSINE KINASE ANCESTOR
     RDKit          3D

 94 98  0  0  0  0  0  0  0  0999 V2000
    1.2191   -6.5496    0.7086 C   0  0  0  0  0  0  0  0  0  0  0  0
   -0.1027   -6.1347    0.1225 C   0  0  0  0  0  0  0  0  0  0  0  0
   -0.8706   -5.1492    0.9740 C   0  0  1  0  0  0  0  0  0  0  0  0
    0.0437   -4.5413    1.9900 C   0  0  0  0  0  0  0  0  0  0  0  0
    1.3358   -4.2052    1.4212 N   0  0  0  0  0  0  0  0  0  0  0  0
    2.0952   -5.3813    1.0676 C   0  0  0  0  0  0  0  0  0  0  0  0
   -1.4870   -4.1552    0.0205 C   0  0  0  0  0  0  0  0  0  0  0  0
   -2.4044   -4.9450   -0.8981 C   0  0  0  0  0  0  0  0  0  0  0  0
   -3.0205   -4.0505   -1.9551 C   0  0  0  0  0  0  0  0  0  0  0  0
   -2.6562   -2.6870   -1.6184 N   0  0  0  0  0  0  0  0  0  0  0  0
   -3.0668   -2.4340   -0.2807 C   0  0  0  0  0  0  0  0  0  0  0  0
   -2.2194   -3.0998    0.7034 N   0  0  0  0  0  0  0  0  0  0  0  0
   -3.2225   -1.0899    0.1241 N   0  0  0  0  0  0  0  0  0  0  0  0
   -4.1351   -0.2652   -0.5903 C   0  0  1  0  0  0  0  0  0  0  0  0
   -4.1700    1.0737    0.1672 C   0  0  1  0  0  0  0  0  0  0  0  0
   -4.4477    2.2436   -0.7158 C   0  0  0  0  0  0  0  0  0  0  0  0
   -3.4185    2.4818   -1.7928 C   0  0  0  0  0  0  0  0  0  0  0  0
   -2.6070    1.1821   -1.8341 C   0  0  0  0  0  0  0  0  0  0  0  0
   -3.6810    0.1015   -1.9851 C   0  0  0  0  0  0  0  0  0  0  0  0
   -1.6270    1.1176   -2.8186 N   0  0  0  0  0  0  0  0  0  0  0  0
   -0.5481    1.9920   -2.9042 C   0  0  0  0  0  0  0  0  0  0  0  0
    0.4894    2.0243   -1.8429 C   0  0  0  0  0  0  0  0  0  0  0  0
    0.0958    2.4021   -0.4701 C   0  0  0  0  0  0  0  0  0  0  0  0
    1.0128    3.3652    0.2502 C   0  0  0  0  0  0  0  0  0  0  0  0
    2.4568    3.2598    0.0209 C   0  0  0  0  0  0  0  0  0  0  0  0
    2.7710    2.4499   -1.2181 C   0  0  0  0  0  0  0  0  0  0  0  0
    1.7076    2.8641   -2.2584 C   0  0  0  0  0  0  0  0  0  0  0  0
    3.3323    2.9468    1.1935 C   0  0  0  0  0  0  0  0  0  0  0  0
    3.1665    1.7818    1.9049 N   0  0  0  0  0  0  0  0  0  0  0  0
    2.0602    1.5039    2.7194 C   0  0  0  0  0  0  0  0  0  0  0  0
    2.3802    0.4823    3.8211 C   0  0  0  0  0  0  0  0  0  0  0  0
    2.8239   -0.7388    3.2728 N   0  0  0  0  0  0  0  0  0  0  0  0
    3.7875   -1.3878    4.1776 C   0  0  0  0  0  0  0  0  0  0  0  0
    3.3502   -0.6343    1.9713 C   0  0  0  0  0  0  0  0  0  0  0  0
    3.9944    0.6771    1.6051 C   0  0  0  0  0  0  0  0  0  0  0  0
    0.1493    1.6771   -4.1136 O   0  0  0  0  0  0  0  0  0  0  0  0
   -5.3893    0.9575    1.0953 C   0  0  0  0  0  0  0  0  0  0  0  0
    1.1378   -7.2881    1.5314 H   0  0  0  0  0  0  0  0  0  0  0  0
    1.7538   -7.0863   -0.1271 H   0  0  0  0  0  0  0  0  0  0  0  0
   -0.6925   -7.0528   -0.0641 H   0  0  0  0  0  0  0  0  0  0  0  0
    0.1396   -5.7064   -0.8908 H   0  0  0  0  0  0  0  0  0  0  0  0
   -1.6504   -5.7097    1.5439 H   0  0  0  0  0  0  0  0  0  0  0  0
   -0.3628   -3.6637    2.4896 H   0  0  0  0  0  0  0  0  0  0  0  0
    0.2020   -5.3147    2.7810 H   0  0  0  0  0  0  0  0  0  0  0  0
    1.8706   -3.6736    2.1338 H   0  0  0  0  0  0  0  0  0  0  0  0
    2.7468   -5.7083    1.9046 H   0  0  0  0  0  0  0  0  0  0  0  0
    2.7881   -5.1171    0.2266 H   0  0  0  0  0  0  0  0  0  0  0  0
   -0.6072   -3.7349   -0.5520 H   0  0  0  0  0  0  0  0  0  0  0  0
   -1.8439   -5.7932   -1.2859 H   0  0  0  0  0  0  0  0  0  0  0  0
   -3.2434   -5.2943   -0.2308 H   0  0  0  0  0  0  0  0  0  0  0  0
   -2.5610   -4.3168   -2.9225 H   0  0  0  0  0  0  0  0  0  0  0  0
   -4.1261   -4.1869   -2.0182 H   0  0  0  0  0  0  0  0  0  0  0  0
   -1.6544   -2.5745   -1.8365 H   0  0  0  0  0  0  0  0  0  0  0  0
   -4.0724   -2.9367   -0.1629 H   0  0  0  0  0  0  0  0  0  0  0  0
   -1.4840   -2.4368    1.0384 H   0  0  0  0  0  0  0  0  0  0  0  0
   -2.3901   -0.6333    0.5126 H   0  0  0  0  0  0  0  0  0  0  0  0
   -5.1257   -0.7526   -0.5908 H   0  0  0  0  0  0  0  0  0  0  0  0
   -3.3042    1.1899    0.8406 H   0  0  0  0  0  0  0  0  0  0  0  0
   -4.3941    3.1427   -0.0541 H   0  0  0  0  0  0  0  0  0  0  0  0
   -5.4827    2.1490   -1.1046 H   0  0  0  0  0  0  0  0  0  0  0  0
   -2.8100    3.3697   -1.6737 H   0  0  0  0  0  0  0  0  0  0  0  0
   -3.9529    2.5339   -2.7695 H   0  0  0  0  0  0  0  0  0  0  0  0
   -2.1776    1.0378   -0.8477 H   0  0  0  0  0  0  0  0  0  0  0  0
   -4.5846    0.5591   -2.4720 H   0  0  0  0  0  0  0  0  0  0  0  0
   -3.3773   -0.7216   -2.6190 H   0  0  0  0  0  0  0  0  0  0  0  0
   -1.4115    0.1641   -3.1440 H   0  0  0  0  0  0  0  0  0  0  0  0
   -0.9323    3.0383   -3.1362 H   0  0  0  0  0  0  0  0  0  0  0  0
    0.9695    0.9710   -1.8195 H   0  0  0  0  0  0  0  0  0  0  0  0
   -0.0192    1.5093    0.2113 H   0  0  0  0  0  0  0  0  0  0  0  0
   -0.9171    2.8848   -0.4141 H   0  0  0  0  0  0  0  0  0  0  0  0
    0.6372    4.4254    0.0348 H   0  0  0  0  0  0  0  0  0  0  0  0
    0.7878    3.2664    1.3370 H   0  0  0  0  0  0  0  0  0  0  0  0
    2.8021    4.3192   -0.2853 H   0  0  0  0  0  0  0  0  0  0  0  0
    2.6901    1.3661   -1.0846 H   0  0  0  0  0  0  0  0  0  0  0  0
    3.7425    2.7423   -1.6626 H   0  0  0  0  0  0  0  0  0  0  0  0
    1.5138    3.9321   -2.2656 H   0  0  0  0  0  0  0  0  0  0  0  0
    2.0471    2.5523   -3.2595 H   0  0  0  0  0  0  0  0  0  0  0  0
    3.2866    3.8257    1.9200 H   0  0  0  0  0  0  0  0  0  0  0  0
    4.3945    3.0078    0.8116 H   0  0  0  0  0  0  0  0  0  0  0  0
    1.7908    2.4346    3.2927 H   0  0  0  0  0  0  0  0  0  0  0  0
    1.1773    1.0638    2.2085 H   0  0  0  0  0  0  0  0  0  0  0  0
    3.1026    0.9085    4.5458 H   0  0  0  0  0  0  0  0  0  0  0  0
    1.3863    0.2808    4.3217 H   0  0  0  0  0  0  0  0  0  0  0  0
    3.4115   -1.4334    5.2206 H   0  0  0  0  0  0  0  0  0  0  0  0
    4.0427   -2.4077    3.8663 H   0  0  0  0  0  0  0  0  0  0  0  0
    4.7349   -0.7933    4.2268 H   0  0  0  0  0  0  0  0  0  0  0  0
    4.1768   -1.3988    1.8826 H   0  0  0  0  0  0  0  0  0  0  0  0
    2.6072   -0.9636    1.1999 H   0  0  0  0  0  0  0  0  0  0  0  0
    4.9732    0.7420    2.1572 H   0  0  0  0  0  0  0  0  0  0  0  0
    4.2712    0.6036    0.5444 H   0  0  0  0  0  0  0  0  0  0  0  0
    0.5351    0.7777   -3.9749 H   0  0  0  0  0  0  0  0  0  0  0  0
   -5.2576    0.1945    1.8629 H   0  0  0  0  0  0  0  0  0  0  0  0
   -6.3078    0.7945    0.4636 H   0  0  0  0  0  0  0  0  0  0  0  0
   -5.4636    1.9439    1.6109 H   0  0  0  0  0  0  0  0  0  0  0  0
  1  2  1  0
  1  6  1  0
  2  3  1  0
  3  4  1  0
  3  7  1  0
  4  5  1  0
  5  6  1  0
  7  8  1  0
  7 12  1  0
  8  9  1  0
  9 10  1  0
 10 11  1  0
 11 12  1  0
 11 13  1  0
 13 14  1  0
 14 15  1  0
 14 19  1  0
 15 16  1  0
 15 37  1  0
 16 17  1  0
 17 18  1  0
 18 19  1  0
 18 20  1  0
 20 21  1  0
 21 22  1  0
 21 36  1  0
 22 23  1  0
 22 27  1  0
 23 24  1  0
 24 25  1  0
 25 26  1  0
 25 28  1  0
 26 27  1  0
 28 29  1  0
 29 30  1  0
 29 35  1  0
 30 31  1  0
 31 32  1  0
 32 33  1  0
 32 34  1  0
 34 35  1  0
  1 38  1  0
  1 39  1  0
  2 40  1  0
  2 41  1  0
  3 42  1  1
  4 43  1  0
  4 44  1  0
  5 45  1  0
  6 46  1  0
  6 47  1  0
  7 48  1  0
  8 49  1  0
  8 50  1  0
  9 51  1  0
  9 52  1  0
 10 53  1  0
 11 54  1  0
 12 55  1  0
 13 56  1  0
 14 57  1  6
 15 58  1  1
 16 59  1  0
 16 60  1  0
 17 61  1  0
 17 62  1  0
 18 63  1  0
 19 64  1  0
 19 65  1  0
 20 66  1  0
 21 67  1  0
 22 68  1  0
 23 69  1  0
 23 70  1  0
 24 71  1  0
 24 72  1  0
 25 73  1  0
 26 74  1  0
 26 75  1  0
 27 76  1  0
 27 77  1  0
 28 78  1  0
 28 79  1  0
 30 80  1  0
 30 81  1  0
 31 82  1  0
 31 83  1  0
 33 84  1  0
 33 85  1  0
 33 86  1  0
 34 87  1  0
 34 88  1  0
 35 89  1  0
 35 90  1  0
 36 91  1  0
 37 92  1  0
 37 93  1  0
 37 94  1  0
M  END
$$$$
SRC-ABL TYROSINE KINASE ANCESTOR
     RDKit          3D

 94 98  0  0  0  0  0  0  0  0999 V2000
   -0.9499    5.8884   -1.5322 C   0  0  0  0  0  0  0  0  0  0  0  0
   -1.2298    5.5074   -0.0910 C   0  0  0  0  0  0  0  0  0  0  0  0
   -0.4854    4.2646    0.3199 C   0  0  1  0  0  0  0  0  0  0  0  0
    0.7323    4.0616   -0.5120 C   0  0  0  0  0  0  0  0  0  0  0  0
    1.3598    5.3123   -0.8924 N   0  0  0  0  0  0  0  0  0  0  0  0
    0.5148    6.0374   -1.8219 C   0  0  0  0  0  0  0  0  0  0  0  0
   -0.2281    4.3396    1.8081 C   0  0  0  0  0  0  0  0  0  0  0  0
   -1.5914    4.4202    2.4619 C   0  0  0  0  0  0  0  0  0  0  0  0
   -1.5608    4.2845    3.9476 C   0  0  0  0  0  0  0  0  0  0  0  0
   -0.6376    3.2589    4.3919 N   0  0  0  0  0  0  0  0  0  0  0  0
    0.6263    3.3270    3.7379 C   0  0  0  0  0  0  0  0  0  0  0  0
    0.5281    3.2121    2.2974 N   0  0  0  0  0  0  0  0  0  0  0  0
    1.5775    2.4395    4.2872 N   0  0  0  0  0  0  0  0  0  0  0  0
    1.3560    1.0530    4.2175 C   0  0  1  0  0  0  0  0  0  0  0  0
    2.5607    0.3628    4.8849 C   0  0  1  0  0  0  0  0  0  0  0  0
    2.5312   -1.0739    4.4545 C   0  0  0  0  0  0  0  0  0  0  0  0
    1.2176   -1.6909    4.8734 C   0  0  0  0  0  0  0  0  0  0  0  0
    0.0270   -0.9494    4.4051 C   0  0  0  0  0  0  0  0  0  0  0  0
    0.1632    0.4939    4.9271 C   0  0  0  0  0  0  0  0  0  0  0  0
   -0.0819   -0.8026    2.9813 N   0  0  0  0  0  0  0  0  0  0  0  0
   -0.1502   -2.0017    2.2400 C   0  0  0  0  0  0  0  0  0  0  0  0
   -0.1931   -1.6983    0.7612 C   0  0  0  0  0  0  0  0  0  0  0  0
   -0.2651   -2.9970   -0.0104 C   0  0  0  0  0  0  0  0  0  0  0  0
   -1.2198   -2.8823   -1.1492 C   0  0  0  0  0  0  0  0  0  0  0  0
   -0.9613   -1.6618   -2.0074 C   0  0  0  0  0  0  0  0  0  0  0  0
   -1.1119   -0.4459   -1.1185 C   0  0  0  0  0  0  0  0  0  0  0  0
   -1.3332   -0.8158    0.3434 C   0  0  0  0  0  0  0  0  0  0  0  0
    0.4319   -1.7512   -2.5692 C   0  0  0  0  0  0  0  0  0  0  0  0
    0.6800   -2.8833   -3.3772 N   0  0  0  0  0  0  0  0  0  0  0  0
    2.0554   -2.8140   -3.8279 C   0  0  0  0  0  0  0  0  0  0  0  0
    2.3950   -3.8002   -4.8959 C   0  0  0  0  0  0  0  0  0  0  0  0
    1.3783   -4.8579   -4.9286 N   0  0  0  0  0  0  0  0  0  0  0  0
    1.7987   -5.8914   -5.8252 C   0  0  0  0  0  0  0  0  0  0  0  0
    0.1688   -4.1892   -5.3940 C   0  0  0  0  0  0  0  0  0  0  0  0
   -0.1867   -3.0473   -4.5065 C   0  0  0  0  0  0  0  0  0  0  0  0
   -1.3378   -2.7304    2.4882 O   0  0  0  0  0  0  0  0  0  0  0  0
    3.8506    1.0434    4.5163 C   0  0  0  0  0  0  0  0  0  0  0  0
   -1.4413    6.8782   -1.6907 H   0  0  0  0  0  0  0  0  0  0  0  0
   -1.4228    5.1533   -2.2318 H   0  0  0  0  0  0  0  0  0  0  0  0
   -0.8929    6.3654    0.5287 H   0  0  0  0  0  0  0  0  0  0  0  0
   -2.3242    5.4432    0.0244 H   0  0  0  0  0  0  0  0  0  0  0  0
   -1.2004    3.4136    0.1207 H   0  0  0  0  0  0  0  0  0  0  0  0
    0.3742    3.6148   -1.4866 H   0  0  0  0  0  0  0  0  0  0  0  0
    1.4328    3.3400   -0.0894 H   0  0  0  0  0  0  0  0  0  0  0  0
    2.2373    5.0271   -1.4191 H   0  0  0  0  0  0  0  0  0  0  0  0
    0.7087    5.6834   -2.8703 H   0  0  0  0  0  0  0  0  0  0  0  0
    0.8154    7.1082   -1.7810 H   0  0  0  0  0  0  0  0  0  0  0  0
    0.2837    5.3077    1.9932 H   0  0  0  0  0  0  0  0  0  0  0  0
   -2.0322    5.4170    2.2195 H   0  0  0  0  0  0  0  0  0  0  0  0
   -2.3117    3.6718    2.0364 H   0  0  0  0  0  0  0  0  0  0  0  0
   -2.5707    3.9774    4.2886 H   0  0  0  0  0  0  0  0  0  0  0  0
   -1.3242    5.2401    4.4629 H   0  0  0  0  0  0  0  0  0  0  0  0
   -0.4783    3.4070    5.4124 H   0  0  0  0  0  0  0  0  0  0  0  0
    1.0194    4.3709    3.9133 H   0  0  0  0  0  0  0  0  0  0  0  0
    1.5161    3.3293    1.9475 H   0  0  0  0  0  0  0  0  0  0  0  0
    2.1241    2.8088    5.0795 H   0  0  0  0  0  0  0  0  0  0  0  0
    1.4047    0.7401    3.1551 H   0  0  0  0  0  0  0  0  0  0  0  0
    2.4541    0.3812    5.9918 H   0  0  0  0  0  0  0  0  0  0  0  0
    3.3188   -1.5948    5.0541 H   0  0  0  0  0  0  0  0  0  0  0  0
    2.7846   -1.2352    3.4004 H   0  0  0  0  0  0  0  0  0  0  0  0
    1.2604   -2.7490    4.5753 H   0  0  0  0  0  0  0  0  0  0  0  0
    1.1992   -1.6755    5.9837 H   0  0  0  0  0  0  0  0  0  0  0  0
   -0.8817   -1.3736    4.8379 H   0  0  0  0  0  0  0  0  0  0  0  0
    0.3867    0.3820    6.0086 H   0  0  0  0  0  0  0  0  0  0  0  0
   -0.7959    0.9563    4.7149 H   0  0  0  0  0  0  0  0  0  0  0  0
   -1.0147   -0.3040    2.8390 H   0  0  0  0  0  0  0  0  0  0  0  0
    0.6622   -2.7194    2.4072 H   0  0  0  0  0  0  0  0  0  0  0  0
    0.7320   -1.1298    0.5371 H   0  0  0  0  0  0  0  0  0  0  0  0
    0.7392   -3.3516   -0.3015 H   0  0  0  0  0  0  0  0  0  0  0  0
   -0.6648   -3.7677    0.6798 H   0  0  0  0  0  0  0  0  0  0  0  0
   -1.1421   -3.8227   -1.7348 H   0  0  0  0  0  0  0  0  0  0  0  0
   -2.2524   -2.8203   -0.7494 H   0  0  0  0  0  0  0  0  0  0  0  0
   -1.7413   -1.5913   -2.7592 H   0  0  0  0  0  0  0  0  0  0  0  0
   -1.9536    0.2026   -1.4093 H   0  0  0  0  0  0  0  0  0  0  0  0
   -0.1913    0.1464   -1.1957 H   0  0  0  0  0  0  0  0  0  0  0  0
   -2.3241   -1.2428    0.5353 H   0  0  0  0  0  0  0  0  0  0  0  0
   -1.2184    0.1601    0.9030 H   0  0  0  0  0  0  0  0  0  0  0  0
    0.5717   -0.8533   -3.2281 H   0  0  0  0  0  0  0  0  0  0  0  0
    1.2032   -1.6775   -1.7816 H   0  0  0  0  0  0  0  0  0  0  0  0
    2.3284   -1.7644   -4.1429 H   0  0  0  0  0  0  0  0  0  0  0  0
    2.7017   -3.0282   -2.9499 H   0  0  0  0  0  0  0  0  0  0  0  0
    2.3622   -3.2966   -5.8973 H   0  0  0  0  0  0  0  0  0  0  0  0
    3.3613   -4.3008   -4.7837 H   0  0  0  0  0  0  0  0  0  0  0  0
    1.6181   -5.6041   -6.8736 H   0  0  0  0  0  0  0  0  0  0  0  0
    2.9103   -5.9936   -5.6917 H   0  0  0  0  0  0  0  0  0  0  0  0
    1.3552   -6.8805   -5.6241 H   0  0  0  0  0  0  0  0  0  0  0  0
   -0.6773   -4.9166   -5.5323 H   0  0  0  0  0  0  0  0  0  0  0  0
    0.4078   -3.8848   -6.4550 H   0  0  0  0  0  0  0  0  0  0  0  0
   -0.0840   -2.1138   -5.1105 H   0  0  0  0  0  0  0  0  0  0  0  0
   -1.2423   -3.1027   -4.2401 H   0  0  0  0  0  0  0  0  0  0  0  0
   -1.1649   -3.5310    3.0364 H   0  0  0  0  0  0  0  0  0  0  0  0
    4.6476    0.2591    4.6135 H   0  0  0  0  0  0  0  0  0  0  0  0
    3.8837    1.3720    3.4581 H   0  0  0  0  0  0  0  0  0  0  0  0
    4.0750    1.8395    5.2322 H   0  0  0  0  0  0  0  0  0  0  0  0
  1  2  1  0
  1  6  1  0
  2  3  1  0
  3  4  1  0
  3  7  1  0
  4  5  1  0
  5  6  1  0
  7  8  1  0
  7 12  1  0
  8  9  1  0
  9 10  1  0
 10 11  1  0
 11 12  1  0
 11 13  1  0
 13 14  1  0
 14 15  1  0
 14 19  1  0
 15 16  1  0
 15 37  1  0
 16 17  1  0
 17 18  1  0
 18 19  1  0
 18 20  1  0
 20 21  1  0
 21 22  1  0
 21 36  1  0
 22 23  1  0
 22 27  1  0
 23 24  1  0
 24 25  1  0
 25 26  1  0
 25 28  1  0
 26 27  1  0
 28 29  1  0
 29 30  1  0
 29 35  1  0
 30 31  1  0
 31 32  1  0
 32 33  1  0
 32 34  1  0
 34 35  1  0
  1 38  1  0
  1 39  1  0
  2 40  1  0
  2 41  1  0
  3 42  1  1
  4 43  1  0
  4 44  1  0
  5 45  1  0
  6 46  1  0
  6 47  1  0
  7 48  1  0
  8 49  1  0
  8 50  1  0
  9 51  1  0
  9 52  1  0
 10 53  1  0
 11 54  1  0
 12 55  1  0
 13 56  1  0
 14 57  1  6
 15 58  1  1
 16 59  1  0
 16 60  1  0
 17 61  1  0
 17 62  1  0
 18 63  1  0
 19 64  1  0
 19 65  1  0
 20 66  1  0
 21 67  1  0
 22 68  1  0
 23 69  1  0
 23 70  1  0
 24 71  1  0
 24 72  1  0
 25 73  1  0
 26 74  1  0
 26 75  1  0
 27 76  1  0
 27 77  1  0
 28 78  1  0
 28 79  1  0
 30 80  1  0
 30 81  1  0
 31 82  1  0
 31 83  1  0
 33 84  1  0
 33 85  1  0
 33 86  1  0
 34 87  1  0
 34 88  1  0
 35 89  1  0
 35 90  1  0
 36 91  1  0
 37 92  1  0
 37 93  1  0
 37 94  1  0
M  END
$$$$
SRC-ABL TYROSINE KINASE ANCESTOR
     RDKit          3D

 94 98  0  0  0  0  0  0  0  0999 V2000
    4.1339   -0.6876   -3.6252 C   0  0  0  0  0  0  0  0  0  0  0  0
    3.0074   -1.6927   -3.7916 C   0  0  0  0  0  0  0  0  0  0  0  0
    3.2744   -2.9864   -3.0583 C   0  0  1  0  0  0  0  0  0  0  0  0
    4.5606   -2.7770   -2.2551 C   0  0  0  0  0  0  0  0  0  0  0  0
    5.6899   -2.4970   -3.1214 N   0  0  0  0  0  0  0  0  0  0  0  0
    5.4835   -1.2845   -3.8681 C   0  0  0  0  0  0  0  0  0  0  0  0
    2.1964   -3.2663   -2.0330 C   0  0  0  0  0  0  0  0  0  0  0  0
    2.4722   -4.5410   -1.3246 C   0  0  0  0  0  0  0  0  0  0  0  0
    1.3373   -5.2193   -0.6690 C   0  0  0  0  0  0  0  0  0  0  0  0
    0.0339   -4.8114   -1.0713 N   0  0  0  0  0  0  0  0  0  0  0  0
   -0.0560   -3.4462   -1.5259 C   0  0  0  0  0  0  0  0  0  0  0  0
    0.8747   -3.3213   -2.6272 N   0  0  0  0  0  0  0  0  0  0  0  0
   -1.4207   -3.2162   -1.8583 N   0  0  0  0  0  0  0  0  0  0  0  0
   -1.7532   -1.9008   -2.3261 C   0  0  1  0  0  0  0  0  0  0  0  0
   -3.2452   -1.8983   -2.5754 C   0  0  1  0  0  0  0  0  0  0  0  0
   -3.9136   -0.5850   -2.3151 C   0  0  0  0  0  0  0  0  0  0  0  0
   -3.0054    0.5718   -2.5585 C   0  0  0  0  0  0  0  0  0  0  0  0
   -1.7204    0.5295   -1.7881 C   0  0  0  0  0  0  0  0  0  0  0  0
   -1.3597   -0.8513   -1.3376 C   0  0  0  0  0  0  0  0  0  0  0  0
   -1.7790    1.3624   -0.5886 N   0  0  0  0  0  0  0  0  0  0  0  0
   -0.5415    1.3566    0.1356 C   0  0  0  0  0  0  0  0  0  0  0  0
   -0.5633    2.1879    1.4007 C   0  0  0  0  0  0  0  0  0  0  0  0
   -0.8680    3.6462    1.1465 C   0  0  0  0  0  0  0  0  0  0  0  0
   -0.5175    4.3851    2.4059 C   0  0  0  0  0  0  0  0  0  0  0  0
   -0.9777    3.7090    3.6862 C   0  0  0  0  0  0  0  0  0  0  0  0
   -2.0125    2.7040    3.4027 C   0  0  0  0  0  0  0  0  0  0  0  0
   -1.6258    1.7179    2.3601 C   0  0  0  0  0  0  0  0  0  0  0  0
    0.1602    3.3762    4.5779 C   0  0  0  0  0  0  0  0  0  0  0  0
   -0.0628    2.7580    5.8284 N   0  0  0  0  0  0  0  0  0  0  0  0
   -0.4586    1.4146    5.8323 C   0  0  0  0  0  0  0  0  0  0  0  0
    0.4024    0.5449    6.7490 C   0  0  0  0  0  0  0  0  0  0  0  0
    1.7894    0.8048    6.6849 N   0  0  0  0  0  0  0  0  0  0  0  0
    2.5687   -0.2019    5.9951 C   0  0  0  0  0  0  0  0  0  0  0  0
    2.1752    2.1360    6.3777 C   0  0  0  0  0  0  0  0  0  0  0  0
    1.0352    3.0632    6.7222 C   0  0  0  0  0  0  0  0  0  0  0  0
    0.5754    1.6719   -0.6337 O   0  0  0  0  0  0  0  0  0  0  0  0
   -3.4189   -2.3488   -4.0208 C   0  0  0  0  0  0  0  0  0  0  0  0
    4.1003   -0.2203   -2.6386 H   0  0  0  0  0  0  0  0  0  0  0  0
    4.0034    0.1115   -4.4044 H   0  0  0  0  0  0  0  0  0  0  0  0
    2.8836   -1.8885   -4.8954 H   0  0  0  0  0  0  0  0  0  0  0  0
    2.0795   -1.2145   -3.4286 H   0  0  0  0  0  0  0  0  0  0  0  0
    3.3971   -3.7935   -3.7783 H   0  0  0  0  0  0  0  0  0  0  0  0
    4.7517   -3.7127   -1.7146 H   0  0  0  0  0  0  0  0  0  0  0  0
    4.3298   -1.9458   -1.5553 H   0  0  0  0  0  0  0  0  0  0  0  0
    5.8070   -3.3318   -3.7295 H   0  0  0  0  0  0  0  0  0  0  0  0
    5.6263   -1.5093   -4.9319 H   0  0  0  0  0  0  0  0  0  0  0  0
    6.2366   -0.5352   -3.5452 H   0  0  0  0  0  0  0  0  0  0  0  0
    2.1515   -2.4622   -1.2624 H   0  0  0  0  0  0  0  0  0  0  0  0
    3.0420   -5.2350   -2.0085 H   0  0  0  0  0  0  0  0  0  0  0  0
    3.2225   -4.3046   -0.5120 H   0  0  0  0  0  0  0  0  0  0  0  0
    1.4256   -6.3093   -0.8569 H   0  0  0  0  0  0  0  0  0  0  0  0
    1.3603   -5.1222    0.4566 H   0  0  0  0  0  0  0  0  0  0  0  0
   -0.5360   -5.4861   -1.5869 H   0  0  0  0  0  0  0  0  0  0  0  0
    0.2934   -2.8083   -0.6646 H   0  0  0  0  0  0  0  0  0  0  0  0
    0.8027   -4.1030   -3.2898 H   0  0  0  0  0  0  0  0  0  0  0  0
   -1.9826   -3.3887   -0.9959 H   0  0  0  0  0  0  0  0  0  0  0  0
   -1.2017   -1.7064   -3.2829 H   0  0  0  0  0  0  0  0  0  0  0  0
   -3.6989   -2.6528   -1.8963 H   0  0  0  0  0  0  0  0  0  0  0  0
   -4.3494   -0.5241   -1.2876 H   0  0  0  0  0  0  0  0  0  0  0  0
   -4.7552   -0.5031   -3.0435 H   0  0  0  0  0  0  0  0  0  0  0  0
   -3.5215    1.5253   -2.3341 H   0  0  0  0  0  0  0  0  0  0  0  0
   -2.7571    0.5566   -3.6554 H   0  0  0  0  0  0  0  0  0  0  0  0
   -0.9295    0.9860   -2.4166 H   0  0  0  0  0  0  0  0  0  0  0  0
   -0.2526   -0.8596   -1.2130 H   0  0  0  0  0  0  0  0  0  0  0  0
   -1.7738   -1.1362   -0.3713 H   0  0  0  0  0  0  0  0  0  0  0  0
   -2.1628    2.3078   -0.8010 H   0  0  0  0  0  0  0  0  0  0  0  0
   -0.3798    0.2892    0.4556 H   0  0  0  0  0  0  0  0  0  0  0  0
    0.4669    2.1462    1.8043 H   0  0  0  0  0  0  0  0  0  0  0  0
   -1.9477    3.7571    0.8852 H   0  0  0  0  0  0  0  0  0  0  0  0
   -0.2902    4.0606    0.3087 H   0  0  0  0  0  0  0  0  0  0  0  0
   -0.9278    5.4056    2.2971 H   0  0  0  0  0  0  0  0  0  0  0  0
    0.5942    4.5187    2.4244 H   0  0  0  0  0  0  0  0  0  0  0  0
   -1.5213    4.5673    4.2413 H   0  0  0  0  0  0  0  0  0  0  0  0
   -2.9335    3.2954    3.0635 H   0  0  0  0  0  0  0  0  0  0  0  0
   -2.3630    2.1810    4.3115 H   0  0  0  0  0  0  0  0  0  0  0  0
   -2.5584    1.5677    1.7189 H   0  0  0  0  0  0  0  0  0  0  0  0
   -1.4261    0.7143    2.7603 H   0  0  0  0  0  0  0  0  0  0  0  0
    0.7307    4.3653    4.7015 H   0  0  0  0  0  0  0  0  0  0  0  0
    0.9409    2.7501    4.0516 H   0  0  0  0  0  0  0  0  0  0  0  0
   -0.4172    0.9333    4.8464 H   0  0  0  0  0  0  0  0  0  0  0  0
   -1.5001    1.2439    6.2352 H   0  0  0  0  0  0  0  0  0  0  0  0
    0.0037    0.6312    7.7935 H   0  0  0  0  0  0  0  0  0  0  0  0
    0.2063   -0.5043    6.4484 H   0  0  0  0  0  0  0  0  0  0  0  0
    3.5751   -0.2016    6.4612 H   0  0  0  0  0  0  0  0  0  0  0  0
    2.7180    0.0358    4.9306 H   0  0  0  0  0  0  0  0  0  0  0  0
    2.1143   -1.1799    6.1775 H   0  0  0  0  0  0  0  0  0  0  0  0
    2.4468    2.2119    5.2839 H   0  0  0  0  0  0  0  0  0  0  0  0
    3.1055    2.4027    6.9285 H   0  0  0  0  0  0  0  0  0  0  0  0
    0.7643    2.8288    7.7832 H   0  0  0  0  0  0  0  0  0  0  0  0
    1.3676    4.1001    6.5972 H   0  0  0  0  0  0  0  0  0  0  0  0
    1.1115    2.3775   -0.1926 H   0  0  0  0  0  0  0  0  0  0  0  0
   -4.2838   -3.0285   -4.0810 H   0  0  0  0  0  0  0  0  0  0  0  0
   -3.5571   -1.4616   -4.6417 H   0  0  0  0  0  0  0  0  0  0  0  0
   -2.5474   -2.9401   -4.3749 H   0  0  0  0  0  0  0  0  0  0  0  0
  1  2  1  0
  1  6  1  0
  2  3  1  0
  3  4  1  0
  3  7  1  0
  4  5  1  0
  5  6  1  0
  7  8  1  0
  7 12  1  0
  8  9  1  0
  9 10  1  0
 10 11  1  0
 11 12  1  0
 11 13  1  0
 13 14  1  0
 14 15  1  0
 14 19  1  0
 15 16  1  0
 15 37  1  0
 16 17  1  0
 17 18  1  0
 18 19  1  0
 18 20  1  0
 20 21  1  0
 21 22  1  0
 21 36  1  0
 22 23  1  0
 22 27  1  0
 23 24  1  0
 24 25  1  0
 25 26  1  0
 25 28  1  0
 26 27  1  0
 28 29  1  0
 29 30  1  0
 29 35  1  0
 30 31  1  0
 31 32  1  0
 32 33  1  0
 32 34  1  0
 34 35  1  0
  1 38  1  0
  1 39  1  0
  2 40  1  0
  2 41  1  0
  3 42  1  6
  4 43  1  0
  4 44  1  0
  5 45  1  0
  6 46  1  0
  6 47  1  0
  7 48  1  0
  8 49  1  0
  8 50  1  0
  9 51  1  0
  9 52  1  0
 10 53  1  0
 11 54  1  0
 12 55  1  0
 13 56  1  0
 14 57  1  6
 15 58  1  1
 16 59  1  0
 16 60  1  0
 17 61  1  0
 17 62  1  0
 18 63  1  0
 19 64  1  0
 19 65  1  0
 20 66  1  0
 21 67  1  0
 22 68  1  0
 23 69  1  0
 23 70  1  0
 24 71  1  0
 24 72  1  0
 25 73  1  0
 26 74  1  0
 26 75  1  0
 27 76  1  0
 27 77  1  0
 28 78  1  0
 28 79  1  0
 30 80  1  0
 30 81  1  0
 31 82  1  0
 31 83  1  0
 33 84  1  0
 33 85  1  0
 33 86  1  0
 34 87  1  0
 34 88  1  0
 35 89  1  0
 35 90  1  0
 36 91  1  0
 37 92  1  0
 37 93  1  0
 37 94  1  0
M  END
$$$$
SRC-ABL TYROSINE KINASE ANCESTOR
     RDKit          3D

 94 98  0  0  0  0  0  0  0  0999 V2000
    3.0350    6.3144   -0.5814 C   0  0  0  0  0  0  0  0  0  0  0  0
    1.8379    5.5834   -0.0469 C   0  0  0  0  0  0  0  0  0  0  0  0
    0.7821    5.2853   -1.0597 C   0  0  1  0  0  0  0  0  0  0  0  0
    1.3176    4.7890   -2.3636 C   0  0  0  0  0  0  0  0  0  0  0  0
    2.6614    5.1912   -2.6643 N   0  0  0  0  0  0  0  0  0  0  0  0
    3.0164    6.4596   -2.0927 C   0  0  0  0  0  0  0  0  0  0  0  0
   -0.1398    4.1940   -0.4953 C   0  0  0  0  0  0  0  0  0  0  0  0
   -1.1733    3.9226   -1.5753 C   0  0  0  0  0  0  0  0  0  0  0  0
   -2.1975    5.0182   -1.5266 C   0  0  0  0  0  0  0  0  0  0  0  0
   -2.8536    5.0841   -0.2689 N   0  0  0  0  0  0  0  0  0  0  0  0
   -2.1562    4.4382    0.8368 C   0  0  0  0  0  0  0  0  0  0  0  0
   -0.7348    4.6122    0.7323 N   0  0  0  0  0  0  0  0  0  0  0  0
   -2.6575    3.1340    0.9648 N   0  0  0  0  0  0  0  0  0  0  0  0
   -2.4060    2.3561    2.1141 C   0  0  1  0  0  0  0  0  0  0  0  0
   -3.1804    1.0328    2.0196 C   0  0  1  0  0  0  0  0  0  0  0  0
   -2.6088    0.1806    3.1430 C   0  0  0  0  0  0  0  0  0  0  0  0
   -1.2621   -0.3024    2.6519 C   0  0  0  0  0  0  0  0  0  0  0  0
   -0.4043    0.8147    2.1125 C   0  0  0  0  0  0  0  0  0  0  0  0
   -1.0195    2.1473    2.5599 C   0  0  0  0  0  0  0  0  0  0  0  0
   -0.1482    0.8705    0.7712 N   0  0  0  0  0  0  0  0  0  0  0  0
    0.7436    0.1904   -0.0248 C   0  0  0  0  0  0  0  0  0  0  0  0
    0.7892   -1.2785   -0.0165 C   0  0  0  0  0  0  0  0  0  0  0  0
    1.1805   -1.9956    1.2294 C   0  0  0  0  0  0  0  0  0  0  0  0
    0.4900   -3.3536    1.1677 C   0  0  0  0  0  0  0  0  0  0  0  0
    0.8031   -4.0205   -0.1722 C   0  0  0  0  0  0  0  0  0  0  0  0
    1.9193   -3.2981   -0.8886 C   0  0  0  0  0  0  0  0  0  0  0  0
    1.6537   -1.8581   -1.1285 C   0  0  0  0  0  0  0  0  0  0  0  0
    1.2445   -5.4313    0.1574 C   0  0  0  0  0  0  0  0  0  0  0  0
    0.1816   -6.0810    0.8263 N   0  0  0  0  0  0  0  0  0  0  0  0
   -0.9811   -6.3732    0.0864 C   0  0  0  0  0  0  0  0  0  0  0  0
   -2.1662   -6.1999    1.0113 C   0  0  0  0  0  0  0  0  0  0  0  0
   -1.9254   -6.6877    2.3290 N   0  0  0  0  0  0  0  0  0  0  0  0
   -2.1064   -5.7250    3.3773 C   0  0  0  0  0  0  0  0  0  0  0  0
   -0.7723   -7.5142    2.4779 C   0  0  0  0  0  0  0  0  0  0  0  0
    0.4786   -7.0311    1.8234 C   0  0  0  0  0  0  0  0  0  0  0  0
    2.0669    0.6291    0.3554 O   0  0  0  0  0  0  0  0  0  0  0  0
   -4.6585    1.2391    2.1312 C   0  0  0  0  0  0  0  0  0  0  0  0
    3.9503    5.7451   -0.3254 H   0  0  0  0  0  0  0  0  0  0  0  0
    3.1622    7.3298   -0.1102 H   0  0  0  0  0  0  0  0  0  0  0  0
    1.3917    6.1992    0.7796 H   0  0  0  0  0  0  0  0  0  0  0  0
    2.1591    4.6163    0.4065 H   0  0  0  0  0  0  0  0  0  0  0  0
    0.1950    6.2194   -1.2479 H   0  0  0  0  0  0  0  0  0  0  0  0
    1.2990    3.6612   -2.4365 H   0  0  0  0  0  0  0  0  0  0  0  0
    0.6730    5.1640   -3.2054 H   0  0  0  0  0  0  0  0  0  0  0  0
    3.3796    4.4612   -2.5826 H   0  0  0  0  0  0  0  0  0  0  0  0
    4.0265    6.7235   -2.4599 H   0  0  0  0  0  0  0  0  0  0  0  0
    2.2663    7.2133   -2.4446 H   0  0  0  0  0  0  0  0  0  0  0  0
    0.5027    3.2993   -0.4198 H   0  0  0  0  0  0  0  0  0  0  0  0
   -1.7258    2.9774   -1.3514 H   0  0  0  0  0  0  0  0  0  0  0  0
   -0.7277    3.8412   -2.5816 H   0  0  0  0  0  0  0  0  0  0  0  0
   -1.7527    6.0048   -1.7864 H   0  0  0  0  0  0  0  0  0  0  0  0
   -2.9933    4.7514   -2.2856 H   0  0  0  0  0  0  0  0  0  0  0  0
   -3.1010    6.0753   -0.0505 H   0  0  0  0  0  0  0  0  0  0  0  0
   -2.4589    5.0231    1.7574 H   0  0  0  0  0  0  0  0  0  0  0  0
   -0.5268    5.6229    0.8974 H   0  0  0  0  0  0  0  0  0  0  0  0
   -3.4672    2.8549    0.4037 H   0  0  0  0  0  0  0  0  0  0  0  0
   -2.9376    2.8907    2.9704 H   0  0  0  0  0  0  0  0  0  0  0  0
   -2.9012    0.5463    1.0664 H   0  0  0  0  0  0  0  0  0  0  0  0
   -3.2584   -0.7204    3.2274 H   0  0  0  0  0  0  0  0  0  0  0  0
   -2.5685    0.7163    4.1101 H   0  0  0  0  0  0  0  0  0  0  0  0
   -0.8036   -0.8372    3.5067 H   0  0  0  0  0  0  0  0  0  0  0  0
   -1.4796   -1.0711    1.8795 H   0  0  0  0  0  0  0  0  0  0  0  0
    0.5697    0.7343    2.6823 H   0  0  0  0  0  0  0  0  0  0  0  0
   -0.9792    2.1864    3.6992 H   0  0  0  0  0  0  0  0  0  0  0  0
   -0.3685    2.9725    2.2515 H   0  0  0  0  0  0  0  0  0  0  0  0
   -0.8454    1.4049    0.1831 H   0  0  0  0  0  0  0  0  0  0  0  0
    0.6582    0.5650   -1.1227 H   0  0  0  0  0  0  0  0  0  0  0  0
   -0.2586   -1.6710   -0.2998 H   0  0  0  0  0  0  0  0  0  0  0  0
    2.2967   -2.3020    1.1196 H   0  0  0  0  0  0  0  0  0  0  0  0
    1.0823   -1.5131    2.1788 H   0  0  0  0  0  0  0  0  0  0  0  0
   -0.5983   -3.1594    1.1543 H   0  0  0  0  0  0  0  0  0  0  0  0
    0.7141   -4.0009    2.0233 H   0  0  0  0  0  0  0  0  0  0  0  0
   -0.0718   -4.0880   -0.8361 H   0  0  0  0  0  0  0  0  0  0  0  0
    2.9076   -3.5063   -0.4177 H   0  0  0  0  0  0  0  0  0  0  0  0
    1.9758   -3.7861   -1.8976 H   0  0  0  0  0  0  0  0  0  0  0  0
    1.1266   -1.6355   -2.0763 H   0  0  0  0  0  0  0  0  0  0  0  0
    2.6260   -1.3119   -1.1814 H   0  0  0  0  0  0  0  0  0  0  0  0
    2.1643   -5.3515    0.7526 H   0  0  0  0  0  0  0  0  0  0  0  0
    1.5308   -5.9444   -0.8032 H   0  0  0  0  0  0  0  0  0  0  0  0
   -0.9886   -7.4625   -0.2169 H   0  0  0  0  0  0  0  0  0  0  0  0
   -1.1216   -5.8318   -0.8610 H   0  0  0  0  0  0  0  0  0  0  0  0
   -3.0622   -6.7051    0.5981 H   0  0  0  0  0  0  0  0  0  0  0  0
   -2.3769   -5.1121    1.0589 H   0  0  0  0  0  0  0  0  0  0  0  0
   -2.4571   -6.3160    4.2739 H   0  0  0  0  0  0  0  0  0  0  0  0
   -2.8651   -4.9978    3.0926 H   0  0  0  0  0  0  0  0  0  0  0  0
   -1.1987   -5.2047    3.6957 H   0  0  0  0  0  0  0  0  0  0  0  0
   -1.0620   -8.5482    2.1750 H   0  0  0  0  0  0  0  0  0  0  0  0
   -0.5674   -7.5826    3.5817 H   0  0  0  0  0  0  0  0  0  0  0  0
    0.9746   -7.9252    1.3492 H   0  0  0  0  0  0  0  0  0  0  0  0
    1.2168   -6.6239    2.5737 H   0  0  0  0  0  0  0  0  0  0  0  0
    2.0002    1.5477    0.7428 H   0  0  0  0  0  0  0  0  0  0  0  0
   -5.2166    0.7868    1.2823 H   0  0  0  0  0  0  0  0  0  0  0  0
   -5.0787    0.7421    3.0506 H   0  0  0  0  0  0  0  0  0  0  0  0
   -4.9519    2.3218    2.1155 H   0  0  0  0  0  0  0  0  0  0  0  0
  1  2  1  0
  1  6  1  0
  2  3  1  0
  3  4  1  0
  3  7  1  0
  4  5  1  0
  5  6  1  0
  7  8  1  0
  7 12  1  0
  8  9  1  0
  9 10  1  0
 10 11  1  0
 11 12  1  0
 11 13  1  0
 13 14  1  0
 14 15  1  0
 14 19  1  0
 15 16  1  0
 15 37  1  0
 16 17  1  0
 17 18  1  0
 18 19  1  0
 18 20  1  0
 20 21  1  0
 21 22  1  0
 21 36  1  0
 22 23  1  0
 22 27  1  0
 23 24  1  0
 24 25  1  0
 25 26  1  0
 25 28  1  0
 26 27  1  0
 28 29  1  0
 29 30  1  0
 29 35  1  0
 30 31  1  0
 31 32  1  0
 32 33  1  0
 32 34  1  0
 34 35  1  0
  1 38  1  0
  1 39  1  0
  2 40  1  0
  2 41  1  0
  3 42  1  6
  4 43  1  0
  4 44  1  0
  5 45  1  0
  6 46  1  0
  6 47  1  0
  7 48  1  0
  8 49  1  0
  8 50  1  0
  9 51  1  0
  9 52  1  0
 10 53  1  0
 11 54  1  0
 12 55  1  0
 13 56  1  0
 14 57  1  1
 15 58  1  6
 16 59  1  0
 16 60  1  0
 17 61  1  0
 17 62  1  0
 18 63  1  0
 19 64  1  0
 19 65  1  0
 20 66  1  0
 21 67  1  0
 22 68  1  0
 23 69  1  0
 23 70  1  0
 24 71  1  0
 24 72  1  0
 25 73  1  0
 26 74  1  0
 26 75  1  0
 27 76  1  0
 27 77  1  0
 28 78  1  0
 28 79  1  0
 30 80  1  0
 30 81  1  0
 31 82  1  0
 31 83  1  0
 33 84  1  0
 33 85  1  0
 33 86  1  0
 34 87  1  0
 34 88  1  0
 35 89  1  0
 35 90  1  0
 36 91  1  0
 37 92  1  0
 37 93  1  0
 37 94  1  0
M  END
$$$$
SRC-ABL TYROSINE KINASE ANCESTOR
     RDKit          3D

 94 98  0  0  0  0  0  0  0  0999 V2000
    2.5136    6.0462    1.0539 C   0  0  0  0  0  0  0  0  0  0  0  0
    1.6209    4.8386    0.9634 C   0  0  0  0  0  0  0  0  0  0  0  0
    2.2051    3.7805    0.0379 C   0  0  1  0  0  0  0  0  0  0  0  0
    3.6545    4.1306   -0.1396 C   0  0  0  0  0  0  0  0  0  0  0  0
    3.7017    5.3236   -0.9605 N   0  0  0  0  0  0  0  0  0  0  0  0
    3.1516    6.4397   -0.2370 C   0  0  0  0  0  0  0  0  0  0  0  0
    1.9687    2.3974    0.5462 C   0  0  0  0  0  0  0  0  0  0  0  0
    2.5278    1.3102   -0.3674 C   0  0  0  0  0  0  0  0  0  0  0  0
    2.3239   -0.0221    0.2540 C   0  0  0  0  0  0  0  0  0  0  0  0
    1.8959   -0.0619    1.6121 N   0  0  0  0  0  0  0  0  0  0  0  0
    2.2253    0.9968    2.4715 C   0  0  0  0  0  0  0  0  0  0  0  0
    2.6817    2.2030    1.7968 N   0  0  0  0  0  0  0  0  0  0  0  0
    1.2090    1.4197    3.3725 N   0  0  0  0  0  0  0  0  0  0  0  0
    0.6474    0.4627    4.2573 C   0  0  1  0  0  0  0  0  0  0  0  0
   -0.2475    1.2670    5.2171 C   0  0  1  0  0  0  0  0  0  0  0  0
   -1.1857    2.0936    4.4040 C   0  0  0  0  0  0  0  0  0  0  0  0
   -2.1201    1.1955    3.6186 C   0  0  0  0  0  0  0  0  0  0  0  0
   -1.2747    0.2420    2.7505 C   0  0  0  0  0  0  0  0  0  0  0  0
   -0.3084   -0.5206    3.5869 C   0  0  0  0  0  0  0  0  0  0  0  0
   -2.1892   -0.5092    1.9809 N   0  0  0  0  0  0  0  0  0  0  0  0
   -1.6677   -1.4453    1.0394 C   0  0  0  0  0  0  0  0  0  0  0  0
   -2.8625   -1.9678    0.2275 C   0  0  0  0  0  0  0  0  0  0  0  0
   -3.4669   -0.7471   -0.4380 C   0  0  0  0  0  0  0  0  0  0  0  0
   -2.5356   -0.1140   -1.4115 C   0  0  0  0  0  0  0  0  0  0  0  0
   -1.9444   -1.1314   -2.3979 C   0  0  0  0  0  0  0  0  0  0  0  0
   -1.3636   -2.3011   -1.7084 C   0  0  0  0  0  0  0  0  0  0  0  0
   -2.3973   -2.9324   -0.7923 C   0  0  0  0  0  0  0  0  0  0  0  0
   -0.9916   -0.4207   -3.2790 C   0  0  0  0  0  0  0  0  0  0  0  0
   -0.3646   -1.1714   -4.2581 N   0  0  0  0  0  0  0  0  0  0  0  0
    0.6317   -2.1203   -4.0516 C   0  0  0  0  0  0  0  0  0  0  0  0
    0.3199   -3.3292   -4.9447 C   0  0  0  0  0  0  0  0  0  0  0  0
   -0.6926   -3.0165   -5.9072 N   0  0  0  0  0  0  0  0  0  0  0  0
   -2.0314   -3.2104   -5.4373 C   0  0  0  0  0  0  0  0  0  0  0  0
   -0.4820   -1.7467   -6.5588 C   0  0  0  0  0  0  0  0  0  0  0  0
   -0.3062   -0.6190   -5.5806 C   0  0  0  0  0  0  0  0  0  0  0  0
   -1.1922   -2.5618    1.7369 O   0  0  0  0  0  0  0  0  0  0  0  0
   -0.8796    0.4198    6.2671 C   0  0  0  0  0  0  0  0  0  0  0  0
    1.8442    6.8934    1.3507 H   0  0  0  0  0  0  0  0  0  0  0  0
    3.2669    5.9623    1.8610 H   0  0  0  0  0  0  0  0  0  0  0  0
    1.5029    4.4418    2.0107 H   0  0  0  0  0  0  0  0  0  0  0  0
    0.6098    5.1274    0.6158 H   0  0  0  0  0  0  0  0  0  0  0  0
    1.7036    3.9037   -0.9585 H   0  0  0  0  0  0  0  0  0  0  0  0
    4.1013    4.4029    0.8520 H   0  0  0  0  0  0  0  0  0  0  0  0
    4.2584    3.3736   -0.6459 H   0  0  0  0  0  0  0  0  0  0  0  0
    4.6658    5.5320   -1.2908 H   0  0  0  0  0  0  0  0  0  0  0  0
    2.4181    7.0200   -0.8720 H   0  0  0  0  0  0  0  0  0  0  0  0
    3.9807    7.1783   -0.0787 H   0  0  0  0  0  0  0  0  0  0  0  0
    0.9038    2.2062    0.7637 H   0  0  0  0  0  0  0  0  0  0  0  0
    2.1382    1.4115   -1.3877 H   0  0  0  0  0  0  0  0  0  0  0  0
    3.6470    1.4583   -0.4319 H   0  0  0  0  0  0  0  0  0  0  0  0
    3.2258   -0.6953    0.1287 H   0  0  0  0  0  0  0  0  0  0  0  0
    1.5286   -0.5457   -0.3582 H   0  0  0  0  0  0  0  0  0  0  0  0
    2.2623   -0.9631    2.0217 H   0  0  0  0  0  0  0  0  0  0  0  0
    3.1059    0.6913    3.1106 H   0  0  0  0  0  0  0  0  0  0  0  0
    3.7228    2.2319    1.6681 H   0  0  0  0  0  0  0  0  0  0  0  0
    1.4391    2.3081    3.8421 H   0  0  0  0  0  0  0  0  0  0  0  0
    1.3334   -0.1114    4.8807 H   0  0  0  0  0  0  0  0  0  0  0  0
    0.4469    1.9843    5.7450 H   0  0  0  0  0  0  0  0  0  0  0  0
   -1.7968    2.7765    4.9972 H   0  0  0  0  0  0  0  0  0  0  0  0
   -0.5618    2.6441    3.6616 H   0  0  0  0  0  0  0  0  0  0  0  0
   -2.7542    1.7647    2.9260 H   0  0  0  0  0  0  0  0  0  0  0  0
   -2.7299    0.5572    4.2675 H   0  0  0  0  0  0  0  0  0  0  0  0
   -0.6736    0.9166    2.0961 H   0  0  0  0  0  0  0  0  0  0  0  0
   -0.7989   -1.0501    4.4533 H   0  0  0  0  0  0  0  0  0  0  0  0
    0.1758   -1.2923    3.0127 H   0  0  0  0  0  0  0  0  0  0  0  0
   -2.9984   -0.8789    2.4922 H   0  0  0  0  0  0  0  0  0  0  0  0
   -0.9666   -1.0252    0.3217 H   0  0  0  0  0  0  0  0  0  0  0  0
   -3.6188   -2.3472    0.9197 H   0  0  0  0  0  0  0  0  0  0  0  0
   -4.3703   -1.0902   -0.9768 H   0  0  0  0  0  0  0  0  0  0  0  0
   -3.7370    0.0005    0.3174 H   0  0  0  0  0  0  0  0  0  0  0  0
   -3.1347    0.5786   -2.0440 H   0  0  0  0  0  0  0  0  0  0  0  0
   -1.7408    0.4982   -0.9534 H   0  0  0  0  0  0  0  0  0  0  0  0
   -2.8528   -1.4930   -2.9651 H   0  0  0  0  0  0  0  0  0  0  0  0
   -0.4138   -2.1490   -1.1964 H   0  0  0  0  0  0  0  0  0  0  0  0
   -1.2172   -3.0956   -2.5058 H   0  0  0  0  0  0  0  0  0  0  0  0
   -3.2740   -3.1810   -1.4373 H   0  0  0  0  0  0  0  0  0  0  0  0
   -2.0461   -3.8715   -0.3237 H   0  0  0  0  0  0  0  0  0  0  0  0
   -0.2370    0.1502   -2.6149 H   0  0  0  0  0  0  0  0  0  0  0  0
   -1.5464    0.4852   -3.7276 H   0  0  0  0  0  0  0  0  0  0  0  0
    1.6473   -1.7691   -4.4937 H   0  0  0  0  0  0  0  0  0  0  0  0
    0.9262   -2.4010   -3.0373 H   0  0  0  0  0  0  0  0  0  0  0  0
   -0.0477   -4.1247   -4.2742 H   0  0  0  0  0  0  0  0  0  0  0  0
    1.2476   -3.7458   -5.4154 H   0  0  0  0  0  0  0  0  0  0  0  0
   -2.0958   -3.9174   -4.5904 H   0  0  0  0  0  0  0  0  0  0  0  0
   -2.5870   -3.7262   -6.2759 H   0  0  0  0  0  0  0  0  0  0  0  0
   -2.5981   -2.2919   -5.2328 H   0  0  0  0  0  0  0  0  0  0  0  0
    0.3411   -1.7910   -7.3067 H   0  0  0  0  0  0  0  0  0  0  0  0
   -1.4085   -1.5385   -7.1312 H   0  0  0  0  0  0  0  0  0  0  0  0
   -1.0341    0.2072   -5.7196 H   0  0  0  0  0  0  0  0  0  0  0  0
    0.6917   -0.1584   -5.7985 H   0  0  0  0  0  0  0  0  0  0  0  0
   -1.8757   -2.7818    2.4188 H   0  0  0  0  0  0  0  0  0  0  0  0
   -0.1374   -0.3204    6.6239 H   0  0  0  0  0  0  0  0  0  0  0  0
   -1.8622    0.0040    6.0257 H   0  0  0  0  0  0  0  0  0  0  0  0
   -1.0608    1.0879    7.1598 H   0  0  0  0  0  0  0  0  0  0  0  0
  1  2  1  0
  1  6  1  0
  2  3  1  0
  3  4  1  0
  3  7  1  0
  4  5  1  0
  5  6  1  0
  7  8  1  0
  7 12  1  0
  8  9  1  0
  9 10  1  0
 10 11  1  0
 11 12  1  0
 11 13  1  0
 13 14  1  0
 14 15  1  0
 14 19  1  0
 15 16  1  0
 15 37  1  0
 16 17  1  0
 17 18  1  0
 18 19  1  0
 18 20  1  0
 20 21  1  0
 21 22  1  0
 21 36  1  0
 22 23  1  0
 22 27  1  0
 23 24  1  0
 24 25  1  0
 25 26  1  0
 25 28  1  0
 26 27  1  0
 28 29  1  0
 29 30  1  0
 29 35  1  0
 30 31  1  0
 31 32  1  0
 32 33  1  0
 32 34  1  0
 34 35  1  0
  1 38  1  0
  1 39  1  0
  2 40  1  0
  2 41  1  0
  3 42  1  6
  4 43  1  0
  4 44  1  0
  5 45  1  0
  6 46  1  0
  6 47  1  0
  7 48  1  0
  8 49  1  0
  8 50  1  0
  9 51  1  0
  9 52  1  0
 10 53  1  0
 11 54  1  0
 12 55  1  0
 13 56  1  0
 14 57  1  1
 15 58  1  1
 16 59  1  0
 16 60  1  0
 17 61  1  0
 17 62  1  0
 18 63  1  0
 19 64  1  0
 19 65  1  0
 20 66  1  0
 21 67  1  0
 22 68  1  0
 23 69  1  0
 23 70  1  0
 24 71  1  0
 24 72  1  0
 25 73  1  0
 26 74  1  0
 26 75  1  0
 27 76  1  0
 27 77  1  0
 28 78  1  0
 28 79  1  0
 30 80  1  0
 30 81  1  0
 31 82  1  0
 31 83  1  0
 33 84  1  0
 33 85  1  0
 33 86  1  0
 34 87  1  0
 34 88  1  0
 35 89  1  0
 35 90  1  0
 36 91  1  0
 37 92  1  0
 37 93  1  0
 37 94  1  0
M  END
$$$$
SRC-ABL TYROSINE KINASE ANCESTOR
     RDKit          3D

 94 98  0  0  0  0  0  0  0  0999 V2000
   -1.6904   -3.6977   -5.9528 C   0  0  0  0  0  0  0  0  0  0  0  0
   -1.6943   -2.4800   -5.0540 C   0  0  0  0  0  0  0  0  0  0  0  0
   -0.2665   -2.2779   -4.5916 C   0  0  1  0  0  0  0  0  0  0  0  0
    0.5545   -1.8980   -5.7900 C   0  0  0  0  0  0  0  0  0  0  0  0
    0.5781   -3.0801   -6.6605 N   0  0  0  0  0  0  0  0  0  0  0  0
   -0.7582   -3.4149   -7.1094 C   0  0  0  0  0  0  0  0  0  0  0  0
   -0.2502   -1.2550   -3.5020 C   0  0  0  0  0  0  0  0  0  0  0  0
    1.1279   -0.9590   -2.9532 C   0  0  0  0  0  0  0  0  0  0  0  0
    0.9612   -0.1123   -1.7418 C   0  0  0  0  0  0  0  0  0  0  0  0
   -0.3556    0.2979   -1.4259 N   0  0  0  0  0  0  0  0  0  0  0  0
   -1.3967   -0.6690   -1.5911 C   0  0  0  0  0  0  0  0  0  0  0  0
   -0.9782   -1.8283   -2.3645 N   0  0  0  0  0  0  0  0  0  0  0  0
   -2.2504   -0.9151   -0.5330 N   0  0  0  0  0  0  0  0  0  0  0  0
   -1.8704   -1.3425    0.7389 C   0  0  1  0  0  0  0  0  0  0  0  0
   -3.1685   -1.5266    1.5272 C   0  0  1  0  0  0  0  0  0  0  0  0
   -3.1530   -2.8376    2.2866 C   0  0  0  0  0  0  0  0  0  0  0  0
   -1.9400   -2.9106    3.2043 C   0  0  0  0  0  0  0  0  0  0  0  0
   -0.7055   -2.6774    2.4044 C   0  0  0  0  0  0  0  0  0  0  0  0
   -1.0243   -2.5165    0.9346 C   0  0  0  0  0  0  0  0  0  0  0  0
    0.1108   -1.5725    2.8728 N   0  0  0  0  0  0  0  0  0  0  0  0
    0.7855   -1.8246    4.1091 C   0  0  0  0  0  0  0  0  0  0  0  0
    1.6187   -0.6611    4.6105 C   0  0  0  0  0  0  0  0  0  0  0  0
    0.8479    0.5799    4.8673 C   0  0  0  0  0  0  0  0  0  0  0  0
    0.9439    1.6536    3.8461 C   0  0  0  0  0  0  0  0  0  0  0  0
    2.3378    1.9796    3.4450 C   0  0  0  0  0  0  0  0  0  0  0  0
    3.3495    0.8934    3.6851 C   0  0  0  0  0  0  0  0  0  0  0  0
    2.7542   -0.4892    3.6428 C   0  0  0  0  0  0  0  0  0  0  0  0
    2.4407    2.3474    1.9803 C   0  0  0  0  0  0  0  0  0  0  0  0
    1.6486    3.4868    1.6353 N   0  0  0  0  0  0  0  0  0  0  0  0
    2.1569    4.6823    2.2174 C   0  0  0  0  0  0  0  0  0  0  0  0
    1.5448    5.9420    1.6967 C   0  0  0  0  0  0  0  0  0  0  0  0
    0.9122    5.8969    0.4417 N   0  0  0  0  0  0  0  0  0  0  0  0
    1.2008    6.9316   -0.4905 C   0  0  0  0  0  0  0  0  0  0  0  0
    0.5741    4.6411   -0.1140 C   0  0  0  0  0  0  0  0  0  0  0  0
    1.6682    3.6400    0.1939 C   0  0  0  0  0  0  0  0  0  0  0  0
   -0.0749   -2.2983    5.0876 O   0  0  0  0  0  0  0  0  0  0  0  0
   -3.4355   -0.3891    2.4703 C   0  0  0  0  0  0  0  0  0  0  0  0
   -1.3477   -4.5535   -5.3322 H   0  0  0  0  0  0  0  0  0  0  0  0
   -2.7037   -3.8157   -6.3669 H   0  0  0  0  0  0  0  0  0  0  0  0
   -2.3422   -2.6312   -4.1652 H   0  0  0  0  0  0  0  0  0  0  0  0
   -1.9954   -1.5707   -5.6226 H   0  0  0  0  0  0  0  0  0  0  0  0
    0.0852   -3.2496   -4.2320 H   0  0  0  0  0  0  0  0  0  0  0  0
    1.6156   -1.6830   -5.5442 H   0  0  0  0  0  0  0  0  0  0  0  0
    0.1291   -1.0805   -6.3949 H   0  0  0  0  0  0  0  0  0  0  0  0
    0.8561   -3.8782   -6.0131 H   0  0  0  0  0  0  0  0  0  0  0  0
   -1.1688   -2.5616   -7.6633 H   0  0  0  0  0  0  0  0  0  0  0  0
   -0.6795   -4.3405   -7.7042 H   0  0  0  0  0  0  0  0  0  0  0  0
   -0.7005   -0.2961   -3.8109 H   0  0  0  0  0  0  0  0  0  0  0  0
    1.7555   -0.4456   -3.6901 H   0  0  0  0  0  0  0  0  0  0  0  0
    1.6345   -1.9174   -2.6414 H   0  0  0  0  0  0  0  0  0  0  0  0
    1.5744    0.8312   -1.8555 H   0  0  0  0  0  0  0  0  0  0  0  0
    1.4036   -0.6057   -0.8527 H   0  0  0  0  0  0  0  0  0  0  0  0
   -0.4843    1.0100   -0.7350 H   0  0  0  0  0  0  0  0  0  0  0  0
   -2.0708   -0.1416   -2.3559 H   0  0  0  0  0  0  0  0  0  0  0  0
   -0.3305   -2.4619   -1.9001 H   0  0  0  0  0  0  0  0  0  0  0  0
   -3.0461   -0.2604   -0.4631 H   0  0  0  0  0  0  0  0  0  0  0  0
   -1.3572   -0.4692    1.2331 H   0  0  0  0  0  0  0  0  0  0  0  0
   -4.0464   -1.6037    0.8451 H   0  0  0  0  0  0  0  0  0  0  0  0
   -3.2569   -3.7272    1.6363 H   0  0  0  0  0  0  0  0  0  0  0  0
   -4.0401   -2.8266    2.9537 H   0  0  0  0  0  0  0  0  0  0  0  0
   -1.9208   -3.9249    3.6405 H   0  0  0  0  0  0  0  0  0  0  0  0
   -2.0905   -2.1990    4.0533 H   0  0  0  0  0  0  0  0  0  0  0  0
   -0.0412   -3.6013    2.4899 H   0  0  0  0  0  0  0  0  0  0  0  0
   -0.0235   -2.4765    0.4532 H   0  0  0  0  0  0  0  0  0  0  0  0
   -1.4998   -3.4917    0.6368 H   0  0  0  0  0  0  0  0  0  0  0  0
   -0.5763   -0.7753    3.0572 H   0  0  0  0  0  0  0  0  0  0  0  0
    1.4747   -2.6978    3.8966 H   0  0  0  0  0  0  0  0  0  0  0  0
    2.0470   -0.9904    5.5875 H   0  0  0  0  0  0  0  0  0  0  0  0
    1.1104    1.0513    5.8596 H   0  0  0  0  0  0  0  0  0  0  0  0
   -0.2215    0.2809    5.0088 H   0  0  0  0  0  0  0  0  0  0  0  0
    0.2677    1.4571    2.9860 H   0  0  0  0  0  0  0  0  0  0  0  0
    0.4954    2.5779    4.3198 H   0  0  0  0  0  0  0  0  0  0  0  0
    2.6853    2.8607    4.0207 H   0  0  0  0  0  0  0  0  0  0  0  0
    4.1667    0.9211    2.9312 H   0  0  0  0  0  0  0  0  0  0  0  0
    3.8594    0.9888    4.6681 H   0  0  0  0  0  0  0  0  0  0  0  0
    2.4103   -0.7877    2.6393 H   0  0  0  0  0  0  0  0  0  0  0  0
    3.5566   -1.2012    3.9283 H   0  0  0  0  0  0  0  0  0  0  0  0
    3.5047    2.5365    1.7275 H   0  0  0  0  0  0  0  0  0  0  0  0
    2.1398    1.4506    1.3753 H   0  0  0  0  0  0  0  0  0  0  0  0
    3.2682    4.6957    2.0382 H   0  0  0  0  0  0  0  0  0  0  0  0
    2.0569    4.6787    3.3212 H   0  0  0  0  0  0  0  0  0  0  0  0
    2.3425    6.7271    1.6824 H   0  0  0  0  0  0  0  0  0  0  0  0
    0.8008    6.3447    2.4424 H   0  0  0  0  0  0  0  0  0  0  0  0
    1.9863    7.6223   -0.1896 H   0  0  0  0  0  0  0  0  0  0  0  0
    1.5244    6.4270   -1.4478 H   0  0  0  0  0  0  0  0  0  0  0  0
    0.2551    7.4640   -0.7997 H   0  0  0  0  0  0  0  0  0  0  0  0
    0.5015    4.7246   -1.2131 H   0  0  0  0  0  0  0  0  0  0  0  0
   -0.3644    4.2139    0.2977 H   0  0  0  0  0  0  0  0  0  0  0  0
    1.5223    2.6859   -0.3362 H   0  0  0  0  0  0  0  0  0  0  0  0
    2.6215    4.1496   -0.0617 H   0  0  0  0  0  0  0  0  0  0  0  0
   -0.0269   -3.2570    5.2576 H   0  0  0  0  0  0  0  0  0  0  0  0
   -2.9263   -0.4475    3.4319 H   0  0  0  0  0  0  0  0  0  0  0  0
   -3.0999    0.5761    2.0034 H   0  0  0  0  0  0  0  0  0  0  0  0
   -4.5391   -0.3537    2.6490 H   0  0  0  0  0  0  0  0  0  0  0  0
  1  2  1  0
  1  6  1  0
  2  3  1  0
  3  4  1  0
  3  7  1  0
  4  5  1  0
  5  6  1  0
  7  8  1  0
  7 12  1  0
  8  9  1  0
  9 10  1  0
 10 11  1  0
 11 12  1  0
 11 13  1  0
 13 14  1  0
 14 15  1  0
 14 19  1  0
 15 16  1  0
 15 37  1  0
 16 17  1  0
 17 18  1  0
 18 19  1  0
 18 20  1  0
 20 21  1  0
 21 22  1  0
 21 36  1  0
 22 23  1  0
 22 27  1  0
 23 24  1  0
 24 25  1  0
 25 26  1  0
 25 28  1  0
 26 27  1  0
 28 29  1  0
 29 30  1  0
 29 35  1  0
 30 31  1  0
 31 32  1  0
 32 33  1  0
 32 34  1  0
 34 35  1  0
  1 38  1  0
  1 39  1  0
  2 40  1  0
  2 41  1  0
  3 42  1  1
  4 43  1  0
  4 44  1  0
  5 45  1  0
  6 46  1  0
  6 47  1  0
  7 48  1  0
  8 49  1  0
  8 50  1  0
  9 51  1  0
  9 52  1  0
 10 53  1  0
 11 54  1  0
 12 55  1  0
 13 56  1  0
 14 57  1  1
 15 58  1  6
 16 59  1  0
 16 60  1  0
 17 61  1  0
 17 62  1  0
 18 63  1  0
 19 64  1  0
 19 65  1  0
 20 66  1  0
 21 67  1  0
 22 68  1  0
 23 69  1  0
 23 70  1  0
 24 71  1  0
 24 72  1  0
 25 73  1  0
 26 74  1  0
 26 75  1  0
 27 76  1  0
 27 77  1  0
 28 78  1  0
 28 79  1  0
 30 80  1  0
 30 81  1  0
 31 82  1  0
 31 83  1  0
 33 84  1  0
 33 85  1  0
 33 86  1  0
 34 87  1  0
 34 88  1  0
 35 89  1  0
 35 90  1  0
 36 91  1  0
 37 92  1  0
 37 93  1  0
 37 94  1  0
M  END
$$$$
SRC-ABL TYROSINE KINASE ANCESTOR
     RDKit          3D

 94 98  0  0  0  0  0  0  0  0999 V2000
    2.7227   -1.8997    5.2057 C   0  0  0  0  0  0  0  0  0  0  0  0
    2.4642   -1.1244    3.9274 C   0  0  0  0  0  0  0  0  0  0  0  0
    1.0925   -1.4622    3.3496 C   0  0  1  0  0  0  0  0  0  0  0  0
    0.8380   -2.9044    3.7182 C   0  0  0  0  0  0  0  0  0  0  0  0
    2.0700   -3.6752    3.7435 N   0  0  0  0  0  0  0  0  0  0  0  0
    2.7279   -3.3923    5.0014 C   0  0  0  0  0  0  0  0  0  0  0  0
    0.0934   -0.5264    4.0023 C   0  0  0  0  0  0  0  0  0  0  0  0
   -1.3163   -0.7207    3.5418 C   0  0  0  0  0  0  0  0  0  0  0  0
   -1.8264    0.4428    2.7090 C   0  0  0  0  0  0  0  0  0  0  0  0
   -0.7180    1.0003    1.9416 N   0  0  0  0  0  0  0  0  0  0  0  0
    0.2715    1.5860    2.8133 C   0  0  0  0  0  0  0  0  0  0  0  0
    0.5755    0.8128    3.9757 N   0  0  0  0  0  0  0  0  0  0  0  0
    1.4695    1.8500    2.1019 N   0  0  0  0  0  0  0  0  0  0  0  0
    1.5298    2.9100    1.1907 C   0  0  1  0  0  0  0  0  0  0  0  0
    2.9636    2.9260    0.6337 C   0  0  1  0  0  0  0  0  0  0  0  0
    3.0865    4.2871   -0.0069 C   0  0  0  0  0  0  0  0  0  0  0  0
    2.2650    4.2821   -1.2454 C   0  0  0  0  0  0  0  0  0  0  0  0
    1.0816    3.3530   -1.2599 C   0  0  0  0  0  0  0  0  0  0  0  0
    0.5232    3.0616    0.1202 C   0  0  0  0  0  0  0  0  0  0  0  0
    1.3386    2.1647   -2.0396 N   0  0  0  0  0  0  0  0  0  0  0  0
    0.2122    1.3493   -2.3340 C   0  0  0  0  0  0  0  0  0  0  0  0
    0.7341    0.1627   -3.1729 C   0  0  0  0  0  0  0  0  0  0  0  0
    1.7273   -0.6374   -2.4215 C   0  0  0  0  0  0  0  0  0  0  0  0
    1.3304   -1.9533   -1.8906 C   0  0  0  0  0  0  0  0  0  0  0  0
   -0.0888   -2.3941   -2.1862 C   0  0  0  0  0  0  0  0  0  0  0  0
   -0.5525   -1.9719   -3.5240 C   0  0  0  0  0  0  0  0  0  0  0  0
   -0.3194   -0.5501   -3.9165 C   0  0  0  0  0  0  0  0  0  0  0  0
   -0.9909   -2.1659   -1.0197 C   0  0  0  0  0  0  0  0  0  0  0  0
   -2.3363   -2.5254   -1.1038 N   0  0  0  0  0  0  0  0  0  0  0  0
   -3.2609   -1.8462   -1.9027 C   0  0  0  0  0  0  0  0  0  0  0  0
   -4.4980   -1.3949   -1.1082 C   0  0  0  0  0  0  0  0  0  0  0  0
   -5.0496   -2.5097   -0.3693 N   0  0  0  0  0  0  0  0  0  0  0  0
   -6.1595   -2.0069    0.4113 C   0  0  0  0  0  0  0  0  0  0  0  0
   -4.0317   -2.9772    0.5385 C   0  0  0  0  0  0  0  0  0  0  0  0
   -2.8445   -3.4891   -0.1992 C   0  0  0  0  0  0  0  0  0  0  0  0
   -0.6487    2.1117   -3.1563 O   0  0  0  0  0  0  0  0  0  0  0  0
    3.9221    2.7134    1.7641 C   0  0  0  0  0  0  0  0  0  0  0  0
    3.7642   -1.6146    5.5190 H   0  0  0  0  0  0  0  0  0  0  0  0
    2.0350   -1.5633    5.9981 H   0  0  0  0  0  0  0  0  0  0  0  0
    3.2672   -1.2804    3.1858 H   0  0  0  0  0  0  0  0  0  0  0  0
    2.4551   -0.0539    4.1998 H   0  0  0  0  0  0  0  0  0  0  0  0
    1.1632   -1.3874    2.2683 H   0  0  0  0  0  0  0  0  0  0  0  0
    0.1872   -3.4062    2.9535 H   0  0  0  0  0  0  0  0  0  0  0  0
    0.3754   -3.0272    4.6973 H   0  0  0  0  0  0  0  0  0  0  0  0
    2.7027   -3.4282    2.9498 H   0  0  0  0  0  0  0  0  0  0  0  0
    3.7753   -3.8075    5.0139 H   0  0  0  0  0  0  0  0  0  0  0  0
    2.1141   -3.9109    5.7906 H   0  0  0  0  0  0  0  0  0  0  0  0
    0.1219   -0.8283    5.0941 H   0  0  0  0  0  0  0  0  0  0  0  0
   -2.0117   -0.8219    4.3994 H   0  0  0  0  0  0  0  0  0  0  0  0
   -1.3882   -1.6662    2.9696 H   0  0  0  0  0  0  0  0  0  0  0  0
   -2.2976    1.2401    3.2929 H   0  0  0  0  0  0  0  0  0  0  0  0
   -2.5537    0.0534    1.9726 H   0  0  0  0  0  0  0  0  0  0  0  0
   -0.2937    0.2583    1.3238 H   0  0  0  0  0  0  0  0  0  0  0  0
   -0.1175    2.5923    3.1654 H   0  0  0  0  0  0  0  0  0  0  0  0
    0.3415    1.3120    4.8497 H   0  0  0  0  0  0  0  0  0  0  0  0
    1.9472    1.0220    1.7413 H   0  0  0  0  0  0  0  0  0  0  0  0
    1.4802    3.8751    1.7983 H   0  0  0  0  0  0  0  0  0  0  0  0
    3.0483    2.1313   -0.1178 H   0  0  0  0  0  0  0  0  0  0  0  0
    4.1312    4.5319   -0.2342 H   0  0  0  0  0  0  0  0  0  0  0  0
    2.6088    5.0347    0.6939 H   0  0  0  0  0  0  0  0  0  0  0  0
    1.9617    5.3581   -1.4348 H   0  0  0  0  0  0  0  0  0  0  0  0
    2.9602    3.9918   -2.0907 H   0  0  0  0  0  0  0  0  0  0  0  0
    0.2764    3.9009   -1.8140 H   0  0  0  0  0  0  0  0  0  0  0  0
   -0.1035    2.1734    0.0242 H   0  0  0  0  0  0  0  0  0  0  0  0
   -0.2018    3.9133    0.3427 H   0  0  0  0  0  0  0  0  0  0  0  0
    1.7753    2.4782   -2.9289 H   0  0  0  0  0  0  0  0  0  0  0  0
   -0.4046    1.0039   -1.5151 H   0  0  0  0  0  0  0  0  0  0  0  0
    1.3493    0.7192   -3.9615 H   0  0  0  0  0  0  0  0  0  0  0  0
    2.6836   -0.8087   -3.0188 H   0  0  0  0  0  0  0  0  0  0  0  0
    2.0882    0.0033   -1.5802 H   0  0  0  0  0  0  0  0  0  0  0  0
    1.3733   -1.9112   -0.7577 H   0  0  0  0  0  0  0  0  0  0  0  0
    2.0606   -2.7640   -2.1433 H   0  0  0  0  0  0  0  0  0  0  0  0
    0.0113   -3.5430   -2.2084 H   0  0  0  0  0  0  0  0  0  0  0  0
    0.0747   -2.5685   -4.2771 H   0  0  0  0  0  0  0  0  0  0  0  0
   -1.5766   -2.3175   -3.7554 H   0  0  0  0  0  0  0  0  0  0  0  0
   -0.1352   -0.4872   -5.0327 H   0  0  0  0  0  0  0  0  0  0  0  0
   -1.2648    0.0114   -3.7888 H   0  0  0  0  0  0  0  0  0  0  0  0
   -0.9286   -1.1244   -0.6191 H   0  0  0  0  0  0  0  0  0  0  0  0
   -0.5150   -2.7664   -0.1658 H   0  0  0  0  0  0  0  0  0  0  0  0
   -3.6637   -2.4639   -2.7588 H   0  0  0  0  0  0  0  0  0  0  0  0
   -2.8793   -0.9129   -2.3478 H   0  0  0  0  0  0  0  0  0  0  0  0
   -4.2488   -0.5796   -0.4310 H   0  0  0  0  0  0  0  0  0  0  0  0
   -5.2466   -1.0723   -1.8543 H   0  0  0  0  0  0  0  0  0  0  0  0
   -5.7831   -1.1331    0.9904 H   0  0  0  0  0  0  0  0  0  0  0  0
   -6.5222   -2.7530    1.1460 H   0  0  0  0  0  0  0  0  0  0  0  0
   -6.9877   -1.6407   -0.2408 H   0  0  0  0  0  0  0  0  0  0  0  0
   -3.7473   -2.1140    1.1696 H   0  0  0  0  0  0  0  0  0  0  0  0
   -4.4361   -3.7243    1.2608 H   0  0  0  0  0  0  0  0  0  0  0  0
   -2.0259   -3.7010    0.5492 H   0  0  0  0  0  0  0  0  0  0  0  0
   -3.0956   -4.4142   -0.7656 H   0  0  0  0  0  0  0  0  0  0  0  0
   -1.4345    2.4389   -2.6439 H   0  0  0  0  0  0  0  0  0  0  0  0
    4.7827    3.4135    1.6457 H   0  0  0  0  0  0  0  0  0  0  0  0
    4.3484    1.7007    1.6818 H   0  0  0  0  0  0  0  0  0  0  0  0
    3.4653    2.7983    2.7724 H   0  0  0  0  0  0  0  0  0  0  0  0
  1  2  1  0
  1  6  1  0
  2  3  1  0
  3  4  1  0
  3  7  1  0
  4  5  1  0
  5  6  1  0
  7  8  1  0
  7 12  1  0
  8  9  1  0
  9 10  1  0
 10 11  1  0
 11 12  1  0
 11 13  1  0
 13 14  1  0
 14 15  1  0
 14 19  1  0
 15 16  1  0
 15 37  1  0
 16 17  1  0
 17 18  1  0
 18 19  1  0
 18 20  1  0
 20 21  1  0
 21 22  1  0
 21 36  1  0
 22 23  1  0
 22 27  1  0
 23 24  1  0
 24 25  1  0
 25 26  1  0
 25 28  1  0
 26 27  1  0
 28 29  1  0
 29 30  1  0
 29 35  1  0
 30 31  1  0
 31 32  1  0
 32 33  1  0
 32 34  1  0
 34 35  1  0
  1 38  1  0
  1 39  1  0
  2 40  1  0
  2 41  1  0
  3 42  1  6
  4 43  1  0
  4 44  1  0
  5 45  1  0
  6 46  1  0
  6 47  1  0
  7 48  1  0
  8 49  1  0
  8 50  1  0
  9 51  1  0
  9 52  1  0
 10 53  1  0
 11 54  1  0
 12 55  1  0
 13 56  1  0
 14 57  1  1
 15 58  1  6
 16 59  1  0
 16 60  1  0
 17 61  1  0
 17 62  1  0
 18 63  1  0
 19 64  1  0
 19 65  1  0
 20 66  1  0
 21 67  1  0
 22 68  1  0
 23 69  1  0
 23 70  1  0
 24 71  1  0
 24 72  1  0
 25 73  1  0
 26 74  1  0
 26 75  1  0
 27 76  1  0
 27 77  1  0
 28 78  1  0
 28 79  1  0
 30 80  1  0
 30 81  1  0
 31 82  1  0
 31 83  1  0
 33 84  1  0
 33 85  1  0
 33 86  1  0
 34 87  1  0
 34 88  1  0
 35 89  1  0
 35 90  1  0
 36 91  1  0
 37 92  1  0
 37 93  1  0
 37 94  1  0
M  END
$$$$
SRC-ABL TYROSINE KINASE ANCESTOR
     RDKit          3D

 94 98  0  0  0  0  0  0  0  0999 V2000
   -1.6557   -2.2414    2.8877 C   0  0  0  0  0  0  0  0  0  0  0  0
   -1.9458   -0.8064    2.4983 C   0  0  0  0  0  0  0  0  0  0  0  0
   -0.9279    0.0632    3.1666 C   0  0  1  0  0  0  0  0  0  0  0  0
    0.4538   -0.3627    2.7549 C   0  0  0  0  0  0  0  0  0  0  0  0
    0.6387   -1.7102    3.3121 N   0  0  0  0  0  0  0  0  0  0  0  0
   -0.2087   -2.5936    2.5384 C   0  0  0  0  0  0  0  0  0  0  0  0
   -1.1839    1.5224    3.1176 C   0  0  0  0  0  0  0  0  0  0  0  0
   -2.4928    1.8203    3.8374 C   0  0  0  0  0  0  0  0  0  0  0  0
   -2.4904    3.3380    3.9526 C   0  0  0  0  0  0  0  0  0  0  0  0
   -2.5370    3.9091    2.6650 N   0  0  0  0  0  0  0  0  0  0  0  0
   -1.7398    3.3191    1.6300 C   0  0  0  0  0  0  0  0  0  0  0  0
   -1.3735    1.9709    1.7572 N   0  0  0  0  0  0  0  0  0  0  0  0
   -2.4320    3.5871    0.3986 N   0  0  0  0  0  0  0  0  0  0  0  0
   -3.7570    3.0757    0.2932 C   0  0  1  0  0  0  0  0  0  0  0  0
   -4.5628    3.8178   -0.7513 C   0  0  1  0  0  0  0  0  0  0  0  0
   -3.9314    3.6190   -2.0702 C   0  0  0  0  0  0  0  0  0  0  0  0
   -3.8510    2.1757   -2.5049 C   0  0  0  0  0  0  0  0  0  0  0  0
   -3.4532    1.2369   -1.4406 C   0  0  0  0  0  0  0  0  0  0  0  0
   -3.7911    1.6088   -0.0468 C   0  0  0  0  0  0  0  0  0  0  0  0
   -2.0582    0.9205   -1.5394 N   0  0  0  0  0  0  0  0  0  0  0  0
   -1.6299    0.0884   -2.5914 C   0  0  0  0  0  0  0  0  0  0  0  0
   -0.0944    0.0275   -2.5154 C   0  0  0  0  0  0  0  0  0  0  0  0
    0.3647   -0.5321   -1.1938 C   0  0  0  0  0  0  0  0  0  0  0  0
    1.4262   -1.5863   -1.3306 C   0  0  0  0  0  0  0  0  0  0  0  0
    2.5371   -1.1125   -2.2312 C   0  0  0  0  0  0  0  0  0  0  0  0
    1.9566   -0.7421   -3.5652 C   0  0  0  0  0  0  0  0  0  0  0  0
    0.4521   -0.8782   -3.5871 C   0  0  0  0  0  0  0  0  0  0  0  0
    3.2134    0.0667   -1.5617 C   0  0  0  0  0  0  0  0  0  0  0  0
    3.7381   -0.3501   -0.2879 N   0  0  0  0  0  0  0  0  0  0  0  0
    4.3913    0.7528    0.4031 C   0  0  0  0  0  0  0  0  0  0  0  0
    4.3778    0.4216    1.8884 C   0  0  0  0  0  0  0  0  0  0  0  0
    4.4741   -1.0330    2.0385 N   0  0  0  0  0  0  0  0  0  0  0  0
    5.0259   -1.3012    3.3466 C   0  0  0  0  0  0  0  0  0  0  0  0
    5.3631   -1.5383    0.9936 C   0  0  0  0  0  0  0  0  0  0  0  0
    4.6358   -1.4744   -0.3516 C   0  0  0  0  0  0  0  0  0  0  0  0
   -2.0688    0.3240   -3.8572 O   0  0  0  0  0  0  0  0  0  0  0  0
   -6.0077    3.4802   -0.6733 C   0  0  0  0  0  0  0  0  0  0  0  0
   -2.2920   -2.9109    2.2770 H   0  0  0  0  0  0  0  0  0  0  0  0
   -1.8501   -2.4419    3.9398 H   0  0  0  0  0  0  0  0  0  0  0  0
   -2.9877   -0.5927    2.7770 H   0  0  0  0  0  0  0  0  0  0  0  0
   -1.8817   -0.7843    1.3938 H   0  0  0  0  0  0  0  0  0  0  0  0
   -0.9949   -0.2173    4.2705 H   0  0  0  0  0  0  0  0  0  0  0  0
    0.6022   -0.4640    1.6769 H   0  0  0  0  0  0  0  0  0  0  0  0
    1.2438    0.2547    3.2340 H   0  0  0  0  0  0  0  0  0  0  0  0
    1.6305   -1.9784    3.3362 H   0  0  0  0  0  0  0  0  0  0  0  0
   -0.0784   -3.6575    2.8231 H   0  0  0  0  0  0  0  0  0  0  0  0
   -0.0535   -2.4361    1.4645 H   0  0  0  0  0  0  0  0  0  0  0  0
   -0.4105    2.0779    3.6414 H   0  0  0  0  0  0  0  0  0  0  0  0
   -2.5086    1.4350    4.8684 H   0  0  0  0  0  0  0  0  0  0  0  0
   -3.3775    1.4664    3.3101 H   0  0  0  0  0  0  0  0  0  0  0  0
   -3.4251    3.6027    4.4979 H   0  0  0  0  0  0  0  0  0  0  0  0
   -1.6351    3.6469    4.5795 H   0  0  0  0  0  0  0  0  0  0  0  0
   -2.2941    4.9217    2.7235 H   0  0  0  0  0  0  0  0  0  0  0  0
   -0.7775    3.9217    1.5569 H   0  0  0  0  0  0  0  0  0  0  0  0
   -0.5104    1.7817    1.1987 H   0  0  0  0  0  0  0  0  0  0  0  0
   -2.4077    4.5919    0.1991 H   0  0  0  0  0  0  0  0  0  0  0  0
   -4.2665    3.2240    1.2663 H   0  0  0  0  0  0  0  0  0  0  0  0
   -4.4824    4.9216   -0.5165 H   0  0  0  0  0  0  0  0  0  0  0  0
   -4.4836    4.2262   -2.8194 H   0  0  0  0  0  0  0  0  0  0  0  0
   -2.9006    4.0630   -2.0320 H   0  0  0  0  0  0  0  0  0  0  0  0
   -4.8663    1.9046   -2.8749 H   0  0  0  0  0  0  0  0  0  0  0  0
   -3.1911    2.1727   -3.3871 H   0  0  0  0  0  0  0  0  0  0  0  0
   -3.9767    0.2434   -1.6332 H   0  0  0  0  0  0  0  0  0  0  0  0
   -3.2133    1.0746    0.7188 H   0  0  0  0  0  0  0  0  0  0  0  0
   -4.8613    1.3006    0.1875 H   0  0  0  0  0  0  0  0  0  0  0  0
   -1.4759    1.7811   -1.3905 H   0  0  0  0  0  0  0  0  0  0  0  0
   -1.9671   -0.9678   -2.3219 H   0  0  0  0  0  0  0  0  0  0  0  0
    0.2822    1.0506   -2.6315 H   0  0  0  0  0  0  0  0  0  0  0  0
    0.7623    0.3104   -0.5709 H   0  0  0  0  0  0  0  0  0  0  0  0
   -0.4859   -1.0020   -0.6377 H   0  0  0  0  0  0  0  0  0  0  0  0
    0.9766   -2.5376   -1.7344 H   0  0  0  0  0  0  0  0  0  0  0  0
    1.8179   -1.8421   -0.3202 H   0  0  0  0  0  0  0  0  0  0  0  0
    3.3175   -1.9155   -2.3452 H   0  0  0  0  0  0  0  0  0  0  0  0
    2.3782   -1.3703   -4.3802 H   0  0  0  0  0  0  0  0  0  0  0  0
    2.2031    0.3111   -3.8095 H   0  0  0  0  0  0  0  0  0  0  0  0
    0.1035   -1.9157   -3.4521 H   0  0  0  0  0  0  0  0  0  0  0  0
    0.0739   -0.5023   -4.5742 H   0  0  0  0  0  0  0  0  0  0  0  0
    4.0476    0.4511   -2.2096 H   0  0  0  0  0  0  0  0  0  0  0  0
    2.4983    0.8960   -1.4150 H   0  0  0  0  0  0  0  0  0  0  0  0
    3.8042    1.6732    0.2076 H   0  0  0  0  0  0  0  0  0  0  0  0
    5.4308    0.8941    0.0430 H   0  0  0  0  0  0  0  0  0  0  0  0
    3.4288    0.7346    2.3678 H   0  0  0  0  0  0  0  0  0  0  0  0
    5.1977    0.9313    2.4329 H   0  0  0  0  0  0  0  0  0  0  0  0
    4.5190   -2.1902    3.7978 H   0  0  0  0  0  0  0  0  0  0  0  0
    6.1307   -1.4359    3.3052 H   0  0  0  0  0  0  0  0  0  0  0  0
    4.7633   -0.4453    4.0097 H   0  0  0  0  0  0  0  0  0  0  0  0
    5.6120   -2.5997    1.2334 H   0  0  0  0  0  0  0  0  0  0  0  0
    6.3018   -0.9554    0.9956 H   0  0  0  0  0  0  0  0  0  0  0  0
    5.4196   -1.2953   -1.1174 H   0  0  0  0  0  0  0  0  0  0  0  0
    4.1234   -2.4328   -0.5586 H   0  0  0  0  0  0  0  0  0  0  0  0
   -2.5314   -0.4306   -4.2889 H   0  0  0  0  0  0  0  0  0  0  0  0
   -6.2768    2.4268   -0.7175 H   0  0  0  0  0  0  0  0  0  0  0  0
   -6.5155    3.9518    0.2147 H   0  0  0  0  0  0  0  0  0  0  0  0
   -6.5346    3.9600   -1.5512 H   0  0  0  0  0  0  0  0  0  0  0  0
  1  2  1  0
  1  6  1  0
  2  3  1  0
  3  4  1  0
  3  7  1  0
  4  5  1  0
  5  6  1  0
  7  8  1  0
  7 12  1  0
  8  9  1  0
  9 10  1  0
 10 11  1  0
 11 12  1  0
 11 13  1  0
 13 14  1  0
 14 15  1  0
 14 19  1  0
 15 16  1  0
 15 37  1  0
 16 17  1  0
 17 18  1  0
 18 19  1  0
 18 20  1  0
 20 21  1  0
 21 22  1  0
 21 36  1  0
 22 23  1  0
 22 27  1  0
 23 24  1  0
 24 25  1  0
 25 26  1  0
 25 28  1  0
 26 27  1  0
 28 29  1  0
 29 30  1  0
 29 35  1  0
 30 31  1  0
 31 32  1  0
 32 33  1  0
 32 34  1  0
 34 35  1  0
  1 38  1  0
  1 39  1  0
  2 40  1  0
  2 41  1  0
  3 42  1  1
  4 43  1  0
  4 44  1  0
  5 45  1  0
  6 46  1  0
  6 47  1  0
  7 48  1  0
  8 49  1  0
  8 50  1  0
  9 51  1  0
  9 52  1  0
 10 53  1  0
 11 54  1  0
 12 55  1  0
 13 56  1  0
 14 57  1  1
 15 58  1  1
 16 59  1  0
 16 60  1  0
 17 61  1  0
 17 62  1  0
 18 63  1  0
 19 64  1  0
 19 65  1  0
 20 66  1  0
 21 67  1  0
 22 68  1  0
 23 69  1  0
 23 70  1  0
 24 71  1  0
 24 72  1  0
 25 73  1  0
 26 74  1  0
 26 75  1  0
 27 76  1  0
 27 77  1  0
 28 78  1  0
 28 79  1  0
 30 80  1  0
 30 81  1  0
 31 82  1  0
 31 83  1  0
 33 84  1  0
 33 85  1  0
 33 86  1  0
 34 87  1  0
 34 88  1  0
 35 89  1  0
 35 90  1  0
 36 91  1  0
 37 92  1  0
 37 93  1  0
 37 94  1  0
M  END
$$$$
SRC-ABL TYROSINE KINASE ANCESTOR
     RDKit          3D

 94 98  0  0  0  0  0  0  0  0999 V2000
    5.3309    1.4525    0.2260 C   0  0  0  0  0  0  0  0  0  0  0  0
    5.5181    0.2214    1.0898 C   0  0  0  0  0  0  0  0  0  0  0  0
    5.0038    0.4201    2.4971 C   0  0  1  0  0  0  0  0  0  0  0  0
    4.8308    1.9391    2.6575 C   0  0  0  0  0  0  0  0  0  0  0  0
    3.7160    2.3263    1.8055 N   0  0  0  0  0  0  0  0  0  0  0  0
    3.9908    2.0998    0.4099 C   0  0  0  0  0  0  0  0  0  0  0  0
    3.6585   -0.1676    2.7212 C   0  0  0  0  0  0  0  0  0  0  0  0
    3.1711    0.0287    4.1160 C   0  0  0  0  0  0  0  0  0  0  0  0
    1.9520   -0.7594    4.4679 C   0  0  0  0  0  0  0  0  0  0  0  0
    1.8594   -2.0514    3.8400 N   0  0  0  0  0  0  0  0  0  0  0  0
    2.1206   -1.8465    2.4051 C   0  0  0  0  0  0  0  0  0  0  0  0
    3.5243   -1.5581    2.2854 N   0  0  0  0  0  0  0  0  0  0  0  0
    1.6473   -2.9750    1.6897 N   0  0  0  0  0  0  0  0  0  0  0  0
    1.8921   -2.9571    0.2761 C   0  0  1  0  0  0  0  0  0  0  0  0
    1.2567   -4.1707   -0.3319 C   0  0  1  0  0  0  0  0  0  0  0  0
    1.0869   -4.1820   -1.7993 C   0  0  0  0  0  0  0  0  0  0  0  0
    1.3846   -2.9125   -2.5201 C   0  0  0  0  0  0  0  0  0  0  0  0
    0.8429   -1.7793   -1.6826 C   0  0  0  0  0  0  0  0  0  0  0  0
    1.6518   -1.6871   -0.4307 C   0  0  0  0  0  0  0  0  0  0  0  0
   -0.5695   -1.8013   -1.5353 N   0  0  0  0  0  0  0  0  0  0  0  0
   -1.1169   -0.7713   -0.6758 C   0  0  0  0  0  0  0  0  0  0  0  0
   -2.6288   -0.7676   -0.6434 C   0  0  0  0  0  0  0  0  0  0  0  0
   -3.1620    0.2913    0.2531 C   0  0  0  0  0  0  0  0  0  0  0  0
   -3.2916    1.5984   -0.4383 C   0  0  0  0  0  0  0  0  0  0  0  0
   -4.3209    1.4191   -1.5487 C   0  0  0  0  0  0  0  0  0  0  0  0
   -3.6691    0.4968   -2.5594 C   0  0  0  0  0  0  0  0  0  0  0  0
   -3.2472   -0.8096   -2.0024 C   0  0  0  0  0  0  0  0  0  0  0  0
   -4.6080    2.7419   -2.2210 C   0  0  0  0  0  0  0  0  0  0  0  0
   -5.1181    3.7419   -1.3789 N   0  0  0  0  0  0  0  0  0  0  0  0
   -6.4140    3.5973   -0.8409 C   0  0  0  0  0  0  0  0  0  0  0  0
   -7.2530    4.8009   -1.2170 C   0  0  0  0  0  0  0  0  0  0  0  0
   -6.4466    5.9104   -1.6605 N   0  0  0  0  0  0  0  0  0  0  0  0
   -6.1011    5.8837   -3.0500 C   0  0  0  0  0  0  0  0  0  0  0  0
   -5.2442    6.0670   -0.8804 C   0  0  0  0  0  0  0  0  0  0  0  0
   -4.3327    4.8458   -1.0221 C   0  0  0  0  0  0  0  0  0  0  0  0
   -0.5244    0.4457   -0.8322 O   0  0  0  0  0  0  0  0  0  0  0  0
    1.9713   -5.4424    0.0976 C   0  0  0  0  0  0  0  0  0  0  0  0
    5.4308    1.1325   -0.8440 H   0  0  0  0  0  0  0  0  0  0  0  0
    6.1072    2.2147    0.4078 H   0  0  0  0  0  0  0  0  0  0  0  0
    6.6115    0.0521    1.1599 H   0  0  0  0  0  0  0  0  0  0  0  0
    5.0970   -0.6799    0.6076 H   0  0  0  0  0  0  0  0  0  0  0  0
    5.7057    0.0229    3.2552 H   0  0  0  0  0  0  0  0  0  0  0  0
    5.7540    2.4928    2.4455 H   0  0  0  0  0  0  0  0  0  0  0  0
    4.5371    2.1893    3.6951 H   0  0  0  0  0  0  0  0  0  0  0  0
    3.4041    3.3061    1.9955 H   0  0  0  0  0  0  0  0  0  0  0  0
    3.2500    1.4399   -0.0873 H   0  0  0  0  0  0  0  0  0  0  0  0
    4.0128    3.0799   -0.1063 H   0  0  0  0  0  0  0  0  0  0  0  0
    2.9469    0.4101    2.0619 H   0  0  0  0  0  0  0  0  0  0  0  0
    4.0204   -0.1301    4.8109 H   0  0  0  0  0  0  0  0  0  0  0  0
    2.8992    1.1159    4.2592 H   0  0  0  0  0  0  0  0  0  0  0  0
    1.0474   -0.1613    4.1620 H   0  0  0  0  0  0  0  0  0  0  0  0
    1.8973   -0.8306    5.5804 H   0  0  0  0  0  0  0  0  0  0  0  0
    0.8792   -2.3787    3.9895 H   0  0  0  0  0  0  0  0  0  0  0  0
    1.5472   -0.9133    2.1772 H   0  0  0  0  0  0  0  0  0  0  0  0
    4.1427   -2.2069    2.8099 H   0  0  0  0  0  0  0  0  0  0  0  0
    0.6814   -3.1630    1.9707 H   0  0  0  0  0  0  0  0  0  0  0  0
    3.0049   -3.1775    0.1992 H   0  0  0  0  0  0  0  0  0  0  0  0
    0.2171   -4.3006    0.0999 H   0  0  0  0  0  0  0  0  0  0  0  0
    0.0800   -4.5575   -2.1308 H   0  0  0  0  0  0  0  0  0  0  0  0
    1.7904   -4.9541   -2.2341 H   0  0  0  0  0  0  0  0  0  0  0  0
    0.8610   -2.9302   -3.4905 H   0  0  0  0  0  0  0  0  0  0  0  0
    2.4855   -2.7837   -2.6246 H   0  0  0  0  0  0  0  0  0  0  0  0
    1.0999   -0.8525   -2.2875 H   0  0  0  0  0  0  0  0  0  0  0  0
    2.6328   -1.1919   -0.7163 H   0  0  0  0  0  0  0  0  0  0  0  0
    1.1613   -0.9237    0.1956 H   0  0  0  0  0  0  0  0  0  0  0  0
   -0.9443   -2.7391   -1.2837 H   0  0  0  0  0  0  0  0  0  0  0  0
   -0.8308   -1.1122    0.3670 H   0  0  0  0  0  0  0  0  0  0  0  0
   -2.9150   -1.7437   -0.1513 H   0  0  0  0  0  0  0  0  0  0  0  0
   -2.4071    0.4391    1.0781 H   0  0  0  0  0  0  0  0  0  0  0  0
   -4.1012    0.0056    0.7725 H   0  0  0  0  0  0  0  0  0  0  0  0
   -2.3386    1.8631   -0.9199 H   0  0  0  0  0  0  0  0  0  0  0  0
   -3.5677    2.4358    0.2345 H   0  0  0  0  0  0  0  0  0  0  0  0
   -5.2309    0.8994   -1.1899 H   0  0  0  0  0  0  0  0  0  0  0  0
   -4.4547    0.3100   -3.3472 H   0  0  0  0  0  0  0  0  0  0  0  0
   -2.8867    1.0881   -3.0726 H   0  0  0  0  0  0  0  0  0  0  0  0
   -4.1442   -1.4728   -2.0096 H   0  0  0  0  0  0  0  0  0  0  0  0
   -2.5314   -1.2997   -2.6953 H   0  0  0  0  0  0  0  0  0  0  0  0
   -5.3475    2.5145   -3.0249 H   0  0  0  0  0  0  0  0  0  0  0  0
   -3.6744    3.0606   -2.7373 H   0  0  0  0  0  0  0  0  0  0  0  0
   -6.4361    3.4594    0.2651 H   0  0  0  0  0  0  0  0  0  0  0  0
   -6.8879    2.7146   -1.3402 H   0  0  0  0  0  0  0  0  0  0  0  0
   -7.9936    4.5386   -2.0062 H   0  0  0  0  0  0  0  0  0  0  0  0
   -7.8070    5.1294   -0.3204 H   0  0  0  0  0  0  0  0  0  0  0  0
   -6.7830    6.5979   -3.5827 H   0  0  0  0  0  0  0  0  0  0  0  0
   -5.0679    6.2683   -3.2434 H   0  0  0  0  0  0  0  0  0  0  0  0
   -6.1805    4.8857   -3.5206 H   0  0  0  0  0  0  0  0  0  0  0  0
   -5.5018    6.1953    0.1802 H   0  0  0  0  0  0  0  0  0  0  0  0
   -4.7272    6.9585   -1.2564 H   0  0  0  0  0  0  0  0  0  0  0  0
   -3.5953    5.0586   -1.8514 H   0  0  0  0  0  0  0  0  0  0  0  0
   -3.7658    4.7899   -0.0718 H   0  0  0  0  0  0  0  0  0  0  0  0
   -0.1299    0.6596   -1.6899 H   0  0  0  0  0  0  0  0  0  0  0  0
    1.2958   -6.2922   -0.2081 H   0  0  0  0  0  0  0  0  0  0  0  0
    1.9172   -5.4352    1.2200 H   0  0  0  0  0  0  0  0  0  0  0  0
    2.9812   -5.5186   -0.2994 H   0  0  0  0  0  0  0  0  0  0  0  0
  1  2  1  0
  1  6  1  0
  2  3  1  0
  3  4  1  0
  3  7  1  0
  4  5  1  0
  5  6  1  0
  7  8  1  0
  7 12  1  0
  8  9  1  0
  9 10  1  0
 10 11  1  0
 11 12  1  0
 11 13  1  0
 13 14  1  0
 14 15  1  0
 14 19  1  0
 15 16  1  0
 15 37  1  0
 16 17  1  0
 17 18  1  0
 18 19  1  0
 18 20  1  0
 20 21  1  0
 21 22  1  0
 21 36  1  0
 22 23  1  0
 22 27  1  0
 23 24  1  0
 24 25  1  0
 25 26  1  0
 25 28  1  0
 26 27  1  0
 28 29  1  0
 29 30  1  0
 29 35  1  0
 30 31  1  0
 31 32  1  0
 32 33  1  0
 32 34  1  0
 34 35  1  0
  1 38  1  0
  1 39  1  0
  2 40  1  0
  2 41  1  0
  3 42  1  1
  4 43  1  0
  4 44  1  0
  5 45  1  0
  6 46  1  0
  6 47  1  0
  7 48  1  0
  8 49  1  0
  8 50  1  0
  9 51  1  0
  9 52  1  0
 10 53  1  0
 11 54  1  0
 12 55  1  0
 13 56  1  0
 14 57  1  1
 15 58  1  1
 16 59  1  0
 16 60  1  0
 17 61  1  0
 17 62  1  0
 18 63  1  0
 19 64  1  0
 19 65  1  0
 20 66  1  0
 21 67  1  0
 22 68  1  0
 23 69  1  0
 23 70  1  0
 24 71  1  0
 24 72  1  0
 25 73  1  0
 26 74  1  0
 26 75  1  0
 27 76  1  0
 27 77  1  0
 28 78  1  0
 28 79  1  0
 30 80  1  0
 30 81  1  0
 31 82  1  0
 31 83  1  0
 33 84  1  0
 33 85  1  0
 33 86  1  0
 34 87  1  0
 34 88  1  0
 35 89  1  0
 35 90  1  0
 36 91  1  0
 37 92  1  0
 37 93  1  0
 37 94  1  0
M  END
$$$$
SRC-ABL TYROSINE KINASE ANCESTOR
     RDKit          3D

 94 98  0  0  0  0  0  0  0  0999 V2000
    1.9489   -2.5237    3.0027 C   0  0  0  0  0  0  0  0  0  0  0  0
    1.5147   -1.9319    1.6706 C   0  0  0  0  0  0  0  0  0  0  0  0
    0.6271   -2.8903    0.8916 C   0  0  1  0  0  0  0  0  0  0  0  0
    1.2601   -4.2389    0.9270 C   0  0  0  0  0  0  0  0  0  0  0  0
    2.6202   -4.1991    1.4587 N   0  0  0  0  0  0  0  0  0  0  0  0
    2.6044   -3.8707    2.8591 C   0  0  0  0  0  0  0  0  0  0  0  0
   -0.7485   -2.8368    1.5486 C   0  0  0  0  0  0  0  0  0  0  0  0
   -1.7233   -3.7489    0.8906 C   0  0  0  0  0  0  0  0  0  0  0  0
   -2.5909   -2.9747   -0.0793 C   0  0  0  0  0  0  0  0  0  0  0  0
   -3.2695   -1.9829    0.7266 N   0  0  0  0  0  0  0  0  0  0  0  0
   -2.3421   -0.9905    1.2458 C   0  0  0  0  0  0  0  0  0  0  0  0
   -1.1121   -1.4958    1.7301 N   0  0  0  0  0  0  0  0  0  0  0  0
   -2.1822    0.1032    0.3109 N   0  0  0  0  0  0  0  0  0  0  0  0
   -3.4030    0.7764   -0.0448 C   0  0  1  0  0  0  0  0  0  0  0  0
   -4.0638    1.4326    1.1512 C   0  0  1  0  0  0  0  0  0  0  0  0
   -3.0287    2.3572    1.7207 C   0  0  0  0  0  0  0  0  0  0  0  0
   -2.6676    3.3803    0.7077 C   0  0  0  0  0  0  0  0  0  0  0  0
   -2.3158    2.9545   -0.6518 C   0  0  0  0  0  0  0  0  0  0  0  0
   -3.1709    1.8050   -1.1377 C   0  0  0  0  0  0  0  0  0  0  0  0
   -0.9616    2.6420   -0.9617 N   0  0  0  0  0  0  0  0  0  0  0  0
    0.0381    3.5954   -0.6584 C   0  0  0  0  0  0  0  0  0  0  0  0
    1.3527    3.2086   -1.2757 C   0  0  0  0  0  0  0  0  0  0  0  0
    1.7909    1.8522   -0.7742 C   0  0  0  0  0  0  0  0  0  0  0  0
    3.1501    1.4984   -1.3454 C   0  0  0  0  0  0  0  0  0  0  0  0
    3.2104    1.5726   -2.8084 C   0  0  0  0  0  0  0  0  0  0  0  0
    2.8475    3.0351   -3.1778 C   0  0  0  0  0  0  0  0  0  0  0  0
    1.4440    3.3663   -2.7536 C   0  0  0  0  0  0  0  0  0  0  0  0
    2.3801    0.7274   -3.6760 C   0  0  0  0  0  0  0  0  0  0  0  0
    2.4365   -0.6577   -3.6695 N   0  0  0  0  0  0  0  0  0  0  0  0
    1.8999   -1.4113   -2.6027 C   0  0  0  0  0  0  0  0  0  0  0  0
    0.4261   -1.7179   -2.8843 C   0  0  0  0  0  0  0  0  0  0  0  0
   -0.0257   -1.1401   -4.1134 N   0  0  0  0  0  0  0  0  0  0  0  0
   -1.4186   -1.4166   -4.2896 C   0  0  0  0  0  0  0  0  0  0  0  0
    0.7728   -1.5582   -5.2492 C   0  0  0  0  0  0  0  0  0  0  0  0
    2.2329   -1.3350   -4.9218 C   0  0  0  0  0  0  0  0  0  0  0  0
    0.2990    3.7311    0.7078 O   0  0  0  0  0  0  0  0  0  0  0  0
   -5.3271    2.1374    0.6941 C   0  0  0  0  0  0  0  0  0  0  0  0
    1.1208   -2.5586    3.7267 H   0  0  0  0  0  0  0  0  0  0  0  0
    2.7094   -1.8385    3.4204 H   0  0  0  0  0  0  0  0  0  0  0  0
    2.4411   -1.6853    1.0951 H   0  0  0  0  0  0  0  0  0  0  0  0
    0.9505   -1.0075    1.9157 H   0  0  0  0  0  0  0  0  0  0  0  0
    0.5202   -2.4643   -0.1107 H   0  0  0  0  0  0  0  0  0  0  0  0
    1.3824   -4.5759   -0.1397 H   0  0  0  0  0  0  0  0  0  0  0  0
    0.7223   -5.0197    1.4637 H   0  0  0  0  0  0  0  0  0  0  0  0
    3.2630   -3.6119    0.8849 H   0  0  0  0  0  0  0  0  0  0  0  0
    3.6339   -3.8976    3.2492 H   0  0  0  0  0  0  0  0  0  0  0  0
    2.0576   -4.6848    3.3768 H   0  0  0  0  0  0  0  0  0  0  0  0
   -0.5595   -3.2941    2.5715 H   0  0  0  0  0  0  0  0  0  0  0  0
   -1.2181   -4.5473    0.3505 H   0  0  0  0  0  0  0  0  0  0  0  0
   -2.4085   -4.1672    1.6611 H   0  0  0  0  0  0  0  0  0  0  0  0
   -3.3851   -3.6745   -0.4256 H   0  0  0  0  0  0  0  0  0  0  0  0
   -2.0528   -2.5745   -0.9364 H   0  0  0  0  0  0  0  0  0  0  0  0
   -3.7207   -2.4691    1.5128 H   0  0  0  0  0  0  0  0  0  0  0  0
   -2.8742   -0.5773    2.1437 H   0  0  0  0  0  0  0  0  0  0  0  0
   -0.9116   -1.1743    2.6904 H   0  0  0  0  0  0  0  0  0  0  0  0
   -1.7760   -0.3050   -0.5551 H   0  0  0  0  0  0  0  0  0  0  0  0
   -4.1106    0.0286   -0.4422 H   0  0  0  0  0  0  0  0  0  0  0  0
   -4.3108    0.6560    1.8832 H   0  0  0  0  0  0  0  0  0  0  0  0
   -2.1941    1.7252    2.0628 H   0  0  0  0  0  0  0  0  0  0  0  0
   -3.5225    2.8958    2.5693 H   0  0  0  0  0  0  0  0  0  0  0  0
   -1.9251    4.1334    1.1107 H   0  0  0  0  0  0  0  0  0  0  0  0
   -3.5946    4.0411    0.6256 H   0  0  0  0  0  0  0  0  0  0  0  0
   -2.5908    3.8116   -1.3482 H   0  0  0  0  0  0  0  0  0  0  0  0
   -4.1559    2.1388   -1.5097 H   0  0  0  0  0  0  0  0  0  0  0  0
   -2.6575    1.3173   -1.9666 H   0  0  0  0  0  0  0  0  0  0  0  0
   -0.9348    2.4542   -1.9897 H   0  0  0  0  0  0  0  0  0  0  0  0
   -0.2038    4.6237   -1.0177 H   0  0  0  0  0  0  0  0  0  0  0  0
    2.1625    3.9085   -0.8718 H   0  0  0  0  0  0  0  0  0  0  0  0
    1.9068    1.9388    0.3257 H   0  0  0  0  0  0  0  0  0  0  0  0
    1.1102    1.0338   -0.9826 H   0  0  0  0  0  0  0  0  0  0  0  0
    3.8911    2.2716   -0.9607 H   0  0  0  0  0  0  0  0  0  0  0  0
    3.4705    0.5313   -0.9475 H   0  0  0  0  0  0  0  0  0  0  0  0
    4.3061    1.5243   -3.0987 H   0  0  0  0  0  0  0  0  0  0  0  0
    3.0513    3.1679   -4.2509 H   0  0  0  0  0  0  0  0  0  0  0  0
    3.5212    3.6481   -2.5498 H   0  0  0  0  0  0  0  0  0  0  0  0
    1.3535    4.4859   -2.9353 H   0  0  0  0  0  0  0  0  0  0  0  0
    0.6471    2.9318   -3.3493 H   0  0  0  0  0  0  0  0  0  0  0  0
    1.3034    1.0597   -3.5457 H   0  0  0  0  0  0  0  0  0  0  0  0
    2.6177    1.0707   -4.7494 H   0  0  0  0  0  0  0  0  0  0  0  0
    2.4106   -2.4313   -2.6490 H   0  0  0  0  0  0  0  0  0  0  0  0
    2.0433   -1.0737   -1.5850 H   0  0  0  0  0  0  0  0  0  0  0  0
    0.2038   -2.7866   -2.7501 H   0  0  0  0  0  0  0  0  0  0  0  0
   -0.1480   -1.1978   -2.0674 H   0  0  0  0  0  0  0  0  0  0  0  0
   -1.6840   -1.9059   -5.2440 H   0  0  0  0  0  0  0  0  0  0  0  0
   -1.8211   -2.0306   -3.4663 H   0  0  0  0  0  0  0  0  0  0  0  0
   -1.9606   -0.4323   -4.1947 H   0  0  0  0  0  0  0  0  0  0  0  0
    0.5073   -0.9050   -6.0989 H   0  0  0  0  0  0  0  0  0  0  0  0
    0.5480   -2.6031   -5.5468 H   0  0  0  0  0  0  0  0  0  0  0  0
    2.6632   -2.3646   -4.7872 H   0  0  0  0  0  0  0  0  0  0  0  0
    2.7803   -0.9039   -5.7726 H   0  0  0  0  0  0  0  0  0  0  0  0
    0.8982    4.5014    0.8496 H   0  0  0  0  0  0  0  0  0  0  0  0
   -5.8340    2.5041    1.6234 H   0  0  0  0  0  0  0  0  0  0  0  0
   -5.1740    2.9740    0.0246 H   0  0  0  0  0  0  0  0  0  0  0  0
   -5.9787    1.3359    0.2652 H   0  0  0  0  0  0  0  0  0  0  0  0
  1  2  1  0
  1  6  1  0
  2  3  1  0
  3  4  1  0
  3  7  1  0
  4  5  1  0
  5  6  1  0
  7  8  1  0
  7 12  1  0
  8  9  1  0
  9 10  1  0
 10 11  1  0
 11 12  1  0
 11 13  1  0
 13 14  1  0
 14 15  1  0
 14 19  1  0
 15 16  1  0
 15 37  1  0
 16 17  1  0
 17 18  1  0
 18 19  1  0
 18 20  1  0
 20 21  1  0
 21 22  1  0
 21 36  1  0
 22 23  1  0
 22 27  1  0
 23 24  1  0
 24 25  1  0
 25 26  1  0
 25 28  1  0
 26 27  1  0
 28 29  1  0
 29 30  1  0
 29 35  1  0
 30 31  1  0
 31 32  1  0
 32 33  1  0
 32 34  1  0
 34 35  1  0
  1 38  1  0
  1 39  1  0
  2 40  1  0
  2 41  1  0
  3 42  1  6
  4 43  1  0
  4 44  1  0
  5 45  1  0
  6 46  1  0
  6 47  1  0
  7 48  1  0
  8 49  1  0
  8 50  1  0
  9 51  1  0
  9 52  1  0
 10 53  1  0
 11 54  1  0
 12 55  1  0
 13 56  1  0
 14 57  1  6
 15 58  1  1
 16 59  1  0
 16 60  1  0
 17 61  1  0
 17 62  1  0
 18 63  1  0
 19 64  1  0
 19 65  1  0
 20 66  1  0
 21 67  1  0
 22 68  1  0
 23 69  1  0
 23 70  1  0
 24 71  1  0
 24 72  1  0
 25 73  1  0
 26 74  1  0
 26 75  1  0
 27 76  1  0
 27 77  1  0
 28 78  1  0
 28 79  1  0
 30 80  1  0
 30 81  1  0
 31 82  1  0
 31 83  1  0
 33 84  1  0
 33 85  1  0
 33 86  1  0
 34 87  1  0
 34 88  1  0
 35 89  1  0
 35 90  1  0
 36 91  1  0
 37 92  1  0
 37 93  1  0
 37 94  1  0
M  END
$$$$
SRC-ABL TYROSINE KINASE ANCESTOR
     RDKit          3D

 94 98  0  0  0  0  0  0  0  0999 V2000
    3.3558   -5.6353   -0.2914 C   0  0  0  0  0  0  0  0  0  0  0  0
    1.9699   -5.4416    0.2872 C   0  0  0  0  0  0  0  0  0  0  0  0
    1.9939   -4.6063    1.5506 C   0  0  1  0  0  0  0  0  0  0  0  0
    3.4446   -4.3917    1.8949 C   0  0  0  0  0  0  0  0  0  0  0  0
    4.0363   -5.7035    2.0847 N   0  0  0  0  0  0  0  0  0  0  0  0
    4.2013   -6.3024    0.7760 C   0  0  0  0  0  0  0  0  0  0  0  0
    1.2173   -3.3393    1.4473 C   0  0  0  0  0  0  0  0  0  0  0  0
    1.2278   -2.5008    2.7110 C   0  0  0  0  0  0  0  0  0  0  0  0
    0.2313   -1.3799    2.4981 C   0  0  0  0  0  0  0  0  0  0  0  0
   -0.0404   -1.2102    1.0814 N   0  0  0  0  0  0  0  0  0  0  0  0
    1.2038   -1.1985    0.3234 C   0  0  0  0  0  0  0  0  0  0  0  0
    1.6735   -2.5935    0.3049 N   0  0  0  0  0  0  0  0  0  0  0  0
    0.9041   -0.8386   -1.0191 N   0  0  0  0  0  0  0  0  0  0  0  0
    2.0058   -0.7746   -1.9333 C   0  0  1  0  0  0  0  0  0  0  0  0
    1.4107   -0.4942   -3.2969 C   0  0  1  0  0  0  0  0  0  0  0  0
    2.3743    0.0675   -4.2785 C   0  0  0  0  0  0  0  0  0  0  0  0
    3.2652    1.1539   -3.7429 C   0  0  0  0  0  0  0  0  0  0  0  0
    2.8724    1.5397   -2.3521 C   0  0  0  0  0  0  0  0  0  0  0  0
    3.0239    0.2442   -1.5304 C   0  0  0  0  0  0  0  0  0  0  0  0
    1.5237    1.9462   -2.1659 N   0  0  0  0  0  0  0  0  0  0  0  0
    1.0677    3.0765   -2.8906 C   0  0  0  0  0  0  0  0  0  0  0  0
   -0.3835    3.2612   -2.5018 C   0  0  0  0  0  0  0  0  0  0  0  0
   -0.4430    3.4842   -1.0302 C   0  0  0  0  0  0  0  0  0  0  0  0
   -1.4999    4.4888   -0.6409 C   0  0  0  0  0  0  0  0  0  0  0  0
   -2.7848    4.2608   -1.4060 C   0  0  0  0  0  0  0  0  0  0  0  0
   -2.5158    4.3108   -2.8802 C   0  0  0  0  0  0  0  0  0  0  0  0
   -1.0372    4.4183   -3.1998 C   0  0  0  0  0  0  0  0  0  0  0  0
   -3.3661    2.9560   -0.9556 C   0  0  0  0  0  0  0  0  0  0  0  0
   -3.6664    2.9264    0.4649 N   0  0  0  0  0  0  0  0  0  0  0  0
   -4.1912    1.5869    0.6607 C   0  0  0  0  0  0  0  0  0  0  0  0
   -4.6676    1.3168    2.0373 C   0  0  0  0  0  0  0  0  0  0  0  0
   -5.2041    2.4403    2.7285 N   0  0  0  0  0  0  0  0  0  0  0  0
   -4.3934    2.8813    3.8159 C   0  0  0  0  0  0  0  0  0  0  0  0
   -5.6567    3.4557    1.8317 C   0  0  0  0  0  0  0  0  0  0  0  0
   -4.6088    3.9449    0.8638 C   0  0  0  0  0  0  0  0  0  0  0  0
    1.1208    2.9556   -4.2643 O   0  0  0  0  0  0  0  0  0  0  0  0
    0.9415   -1.8505   -3.8444 C   0  0  0  0  0  0  0  0  0  0  0  0
    3.7968   -4.7368   -0.7231 H   0  0  0  0  0  0  0  0  0  0  0  0
    3.2367   -6.3565   -1.1369 H   0  0  0  0  0  0  0  0  0  0  0  0
    1.2526   -5.0589   -0.4770 H   0  0  0  0  0  0  0  0  0  0  0  0
    1.6005   -6.4892    0.4964 H   0  0  0  0  0  0  0  0  0  0  0  0
    1.5768   -5.2453    2.3749 H   0  0  0  0  0  0  0  0  0  0  0  0
    3.5515   -3.8694    2.8858 H   0  0  0  0  0  0  0  0  0  0  0  0
    4.0275   -3.8774    1.1117 H   0  0  0  0  0  0  0  0  0  0  0  0
    4.9351   -5.6719    2.6151 H   0  0  0  0  0  0  0  0  0  0  0  0
    3.8678   -7.3771    0.8055 H   0  0  0  0  0  0  0  0  0  0  0  0
    5.2708   -6.2385    0.4711 H   0  0  0  0  0  0  0  0  0  0  0  0
    0.1469   -3.5734    1.2616 H   0  0  0  0  0  0  0  0  0  0  0  0
    2.2011   -2.0667    2.9261 H   0  0  0  0  0  0  0  0  0  0  0  0
    0.8304   -3.1425    3.5221 H   0  0  0  0  0  0  0  0  0  0  0  0
   -0.6940   -1.5377    3.0793 H   0  0  0  0  0  0  0  0  0  0  0  0
    0.6832   -0.4487    2.8840 H   0  0  0  0  0  0  0  0  0  0  0  0
   -0.6404   -0.4055    0.8772 H   0  0  0  0  0  0  0  0  0  0  0  0
    1.9817   -0.6195    0.8257 H   0  0  0  0  0  0  0  0  0  0  0  0
    1.4328   -3.0350   -0.5983 H   0  0  0  0  0  0  0  0  0  0  0  0
    0.2141   -0.0807   -1.1200 H   0  0  0  0  0  0  0  0  0  0  0  0
    2.4641   -1.7929   -1.9697 H   0  0  0  0  0  0  0  0  0  0  0  0
    0.4740    0.0960   -3.2280 H   0  0  0  0  0  0  0  0  0  0  0  0
    1.7749    0.4390   -5.1547 H   0  0  0  0  0  0  0  0  0  0  0  0
    2.9692   -0.7730   -4.7060 H   0  0  0  0  0  0  0  0  0  0  0  0
    3.3575    2.0132   -4.4387 H   0  0  0  0  0  0  0  0  0  0  0  0
    4.2915    0.7311   -3.6770 H   0  0  0  0  0  0  0  0  0  0  0  0
    3.6296    2.2499   -1.9598 H   0  0  0  0  0  0  0  0  0  0  0  0
    4.0509   -0.1499   -1.6859 H   0  0  0  0  0  0  0  0  0  0  0  0
    2.9128    0.5515   -0.4769 H   0  0  0  0  0  0  0  0  0  0  0  0
    1.3927    2.1328   -1.1534 H   0  0  0  0  0  0  0  0  0  0  0  0
    1.6816    3.9525   -2.5961 H   0  0  0  0  0  0  0  0  0  0  0  0
   -0.8964    2.3430   -2.8457 H   0  0  0  0  0  0  0  0  0  0  0  0
   -0.5189    2.5469   -0.4411 H   0  0  0  0  0  0  0  0  0  0  0  0
    0.5258    3.9358   -0.7108 H   0  0  0  0  0  0  0  0  0  0  0  0
   -1.1473    5.5364   -0.8088 H   0  0  0  0  0  0  0  0  0  0  0  0
   -1.7325    4.4290    0.4435 H   0  0  0  0  0  0  0  0  0  0  0  0
   -3.5068    5.0612   -1.1457 H   0  0  0  0  0  0  0  0  0  0  0  0
   -2.9932    5.2205   -3.3485 H   0  0  0  0  0  0  0  0  0  0  0  0
   -2.8973    3.4253   -3.4283 H   0  0  0  0  0  0  0  0  0  0  0  0
   -0.9349    4.3870   -4.2971 H   0  0  0  0  0  0  0  0  0  0  0  0
   -0.6637    5.3750   -2.7838 H   0  0  0  0  0  0  0  0  0  0  0  0
   -4.3603    2.7800   -1.4529 H   0  0  0  0  0  0  0  0  0  0  0  0
   -2.6799    2.0987   -1.1153 H   0  0  0  0  0  0  0  0  0  0  0  0
   -3.3218    0.9074    0.4417 H   0  0  0  0  0  0  0  0  0  0  0  0
   -4.9336    1.3928   -0.1405 H   0  0  0  0  0  0  0  0  0  0  0  0
   -5.4738    0.5455    1.9610 H   0  0  0  0  0  0  0  0  0  0  0  0
   -3.8528    0.8167    2.6399 H   0  0  0  0  0  0  0  0  0  0  0  0
   -3.3285    2.6658    3.5824 H   0  0  0  0  0  0  0  0  0  0  0  0
   -4.6502    2.2188    4.6910 H   0  0  0  0  0  0  0  0  0  0  0  0
   -4.5569    3.9431    4.0869 H   0  0  0  0  0  0  0  0  0  0  0  0
   -6.4444    2.9709    1.1865 H   0  0  0  0  0  0  0  0  0  0  0  0
   -6.0503    4.3019    2.4216 H   0  0  0  0  0  0  0  0  0  0  0  0
   -5.0747    4.3688   -0.0522 H   0  0  0  0  0  0  0  0  0  0  0  0
   -4.0423    4.7566    1.3635 H   0  0  0  0  0  0  0  0  0  0  0  0
    1.1965    3.8271   -4.7193 H   0  0  0  0  0  0  0  0  0  0  0  0
    0.2641   -1.6137   -4.7025 H   0  0  0  0  0  0  0  0  0  0  0  0
    0.2846   -2.3677   -3.1054 H   0  0  0  0  0  0  0  0  0  0  0  0
    1.7745   -2.4618   -4.2118 H   0  0  0  0  0  0  0  0  0  0  0  0
  1  2  1  0
  1  6  1  0
  2  3  1  0
  3  4  1  0
  3  7  1  0
  4  5  1  0
  5  6  1  0
  7  8  1  0
  7 12  1  0
  8  9  1  0
  9 10  1  0
 10 11  1  0
 11 12  1  0
 11 13  1  0
 13 14  1  0
 14 15  1  0
 14 19  1  0
 15 16  1  0
 15 37  1  0
 16 17  1  0
 17 18  1  0
 18 19  1  0
 18 20  1  0
 20 21  1  0
 21 22  1  0
 21 36  1  0
 22 23  1  0
 22 27  1  0
 23 24  1  0
 24 25  1  0
 25 26  1  0
 25 28  1  0
 26 27  1  0
 28 29  1  0
 29 30  1  0
 29 35  1  0
 30 31  1  0
 31 32  1  0
 32 33  1  0
 32 34  1  0
 34 35  1  0
  1 38  1  0
  1 39  1  0
  2 40  1  0
  2 41  1  0
  3 42  1  1
  4 43  1  0
  4 44  1  0
  5 45  1  0
  6 46  1  0
  6 47  1  0
  7 48  1  0
  8 49  1  0
  8 50  1  0
  9 51  1  0
  9 52  1  0
 10 53  1  0
 11 54  1  0
 12 55  1  0
 13 56  1  0
 14 57  1  6
 15 58  1  1
 16 59  1  0
 16 60  1  0
 17 61  1  0
 17 62  1  0
 18 63  1  0
 19 64  1  0
 19 65  1  0
 20 66  1  0
 21 67  1  0
 22 68  1  0
 23 69  1  0
 23 70  1  0
 24 71  1  0
 24 72  1  0
 25 73  1  0
 26 74  1  0
 26 75  1  0
 27 76  1  0
 27 77  1  0
 28 78  1  0
 28 79  1  0
 30 80  1  0
 30 81  1  0
 31 82  1  0
 31 83  1  0
 33 84  1  0
 33 85  1  0
 33 86  1  0
 34 87  1  0
 34 88  1  0
 35 89  1  0
 35 90  1  0
 36 91  1  0
 37 92  1  0
 37 93  1  0
 37 94  1  0
M  END
$$$$
SRC-ABL TYROSINE KINASE ANCESTOR
     RDKit          3D

 94 98  0  0  0  0  0  0  0  0999 V2000
    1.8843   -1.8815   -5.7688 C   0  0  0  0  0  0  0  0  0  0  0  0
    2.8357   -1.3213   -4.7414 C   0  0  0  0  0  0  0  0  0  0  0  0
    2.2477   -1.4428   -3.3358 C   0  0  1  0  0  0  0  0  0  0  0  0
    1.8520   -2.8724   -3.1419 C   0  0  0  0  0  0  0  0  0  0  0  0
    0.8775   -3.3374   -4.1072 N   0  0  0  0  0  0  0  0  0  0  0  0
    0.6105   -2.4266   -5.1734 C   0  0  0  0  0  0  0  0  0  0  0  0
    3.3806   -1.1087   -2.3985 C   0  0  0  0  0  0  0  0  0  0  0  0
    3.9530    0.2563   -2.5613 C   0  0  0  0  0  0  0  0  0  0  0  0
    3.1398    1.3338   -1.9488 C   0  0  0  0  0  0  0  0  0  0  0  0
    2.4224    0.9795   -0.7759 N   0  0  0  0  0  0  0  0  0  0  0  0
    2.0705   -0.3676   -0.5695 C   0  0  0  0  0  0  0  0  0  0  0  0
    3.0829   -1.3106   -1.0061 N   0  0  0  0  0  0  0  0  0  0  0  0
    1.6116   -0.6078    0.7460 N   0  0  0  0  0  0  0  0  0  0  0  0
    2.4968   -0.5564    1.8385 C   0  0  1  0  0  0  0  0  0  0  0  0
    3.1307    0.7289    2.1844 C   0  0  1  0  0  0  0  0  0  0  0  0
    2.4087    1.5637    3.2169 C   0  0  0  0  0  0  0  0  0  0  0  0
    2.1612    0.7055    4.4311 C   0  0  0  0  0  0  0  0  0  0  0  0
    1.1895   -0.3603    3.9992 C   0  0  0  0  0  0  0  0  0  0  0  0
    1.8917   -1.2803    3.0319 C   0  0  0  0  0  0  0  0  0  0  0  0
   -0.0034    0.1966    3.4952 N   0  0  0  0  0  0  0  0  0  0  0  0
   -0.8514    0.9269    4.3568 C   0  0  0  0  0  0  0  0  0  0  0  0
   -2.1384    1.3553    3.6627 C   0  0  0  0  0  0  0  0  0  0  0  0
   -1.8346    2.2136    2.5012 C   0  0  0  0  0  0  0  0  0  0  0  0
   -2.1388    1.7164    1.1457 C   0  0  0  0  0  0  0  0  0  0  0  0
   -3.1754    0.6841    0.9562 C   0  0  0  0  0  0  0  0  0  0  0  0
   -3.9490    0.4461    2.2271 C   0  0  0  0  0  0  0  0  0  0  0  0
   -2.9045    0.1020    3.3050 C   0  0  0  0  0  0  0  0  0  0  0  0
   -4.1470    1.1661   -0.1154 C   0  0  0  0  0  0  0  0  0  0  0  0
   -3.4186    1.3680   -1.3174 N   0  0  0  0  0  0  0  0  0  0  0  0
   -2.9073    0.2178   -1.9685 C   0  0  0  0  0  0  0  0  0  0  0  0
   -3.5891   -0.0899   -3.2826 C   0  0  0  0  0  0  0  0  0  0  0  0
   -4.0031    1.0595   -4.0238 N   0  0  0  0  0  0  0  0  0  0  0  0
   -5.4358    1.2146   -3.9992 C   0  0  0  0  0  0  0  0  0  0  0  0
   -3.3443    2.2524   -3.5653 C   0  0  0  0  0  0  0  0  0  0  0  0
   -3.7974    2.4683   -2.1322 C   0  0  0  0  0  0  0  0  0  0  0  0
   -0.2458    2.0609    4.8881 O   0  0  0  0  0  0  0  0  0  0  0  0
    4.5832    0.5319    2.6735 C   0  0  0  0  0  0  0  0  0  0  0  0
    1.5493   -1.1183   -6.5238 H   0  0  0  0  0  0  0  0  0  0  0  0
    2.3462   -2.6835   -6.3810 H   0  0  0  0  0  0  0  0  0  0  0  0
    3.7900   -1.9158   -4.7945 H   0  0  0  0  0  0  0  0  0  0  0  0
    2.9935   -0.2573   -5.0224 H   0  0  0  0  0  0  0  0  0  0  0  0
    1.3940   -0.7566   -3.2901 H   0  0  0  0  0  0  0  0  0  0  0  0
    2.7728   -3.5075   -3.2563 H   0  0  0  0  0  0  0  0  0  0  0  0
    1.3985   -3.0830   -2.1514 H   0  0  0  0  0  0  0  0  0  0  0  0
   -0.0294   -3.6285   -3.6819 H   0  0  0  0  0  0  0  0  0  0  0  0
   -0.1139   -1.6490   -4.9050 H   0  0  0  0  0  0  0  0  0  0  0  0
    0.1268   -3.0162   -5.9887 H   0  0  0  0  0  0  0  0  0  0  0  0
    4.1954   -1.8301   -2.6412 H   0  0  0  0  0  0  0  0  0  0  0  0
    4.9378    0.2431   -2.0057 H   0  0  0  0  0  0  0  0  0  0  0  0
    4.2645    0.4805   -3.6120 H   0  0  0  0  0  0  0  0  0  0  0  0
    3.7485    2.2470   -1.6944 H   0  0  0  0  0  0  0  0  0  0  0  0
    2.3982    1.6894   -2.7141 H   0  0  0  0  0  0  0  0  0  0  0  0
    1.6939    1.6738   -0.4972 H   0  0  0  0  0  0  0  0  0  0  0  0
    1.1943   -0.5796   -1.2540 H   0  0  0  0  0  0  0  0  0  0  0  0
    2.7696   -2.2950   -0.8985 H   0  0  0  0  0  0  0  0  0  0  0  0
    0.9441   -1.3993    0.8748 H   0  0  0  0  0  0  0  0  0  0  0  0
    3.3765   -1.2503    1.5874 H   0  0  0  0  0  0  0  0  0  0  0  0
    3.2404    1.3668    1.2962 H   0  0  0  0  0  0  0  0  0  0  0  0
    1.5595    2.1203    2.8451 H   0  0  0  0  0  0  0  0  0  0  0  0
    3.1636    2.3321    3.5456 H   0  0  0  0  0  0  0  0  0  0  0  0
    1.8217    1.2953    5.3000 H   0  0  0  0  0  0  0  0  0  0  0  0
    3.1482    0.2141    4.6692 H   0  0  0  0  0  0  0  0  0  0  0  0
    0.9497   -1.0158    4.8844 H   0  0  0  0  0  0  0  0  0  0  0  0
    2.6382   -1.8365    3.6140 H   0  0  0  0  0  0  0  0  0  0  0  0
    1.1671   -2.0127    2.6213 H   0  0  0  0  0  0  0  0  0  0  0  0
    0.1369    0.7062    2.6042 H   0  0  0  0  0  0  0  0  0  0  0  0
   -1.0922    0.2499    5.2280 H   0  0  0  0  0  0  0  0  0  0  0  0
   -2.7993    1.9013    4.3950 H   0  0  0  0  0  0  0  0  0  0  0  0
   -0.7729    2.5885    2.4924 H   0  0  0  0  0  0  0  0  0  0  0  0
   -2.4232    3.1796    2.6240 H   0  0  0  0  0  0  0  0  0  0  0  0
   -1.1757    1.2888    0.7175 H   0  0  0  0  0  0  0  0  0  0  0  0
   -2.3075    2.6023    0.4556 H   0  0  0  0  0  0  0  0  0  0  0  0
   -2.7176   -0.2861    0.6553 H   0  0  0  0  0  0  0  0  0  0  0  0
   -4.4761    1.3741    2.5560 H   0  0  0  0  0  0  0  0  0  0  0  0
   -4.6320   -0.4083    2.1406 H   0  0  0  0  0  0  0  0  0  0  0  0
   -2.2314   -0.6782    2.9064 H   0  0  0  0  0  0  0  0  0  0  0  0
   -3.3968   -0.2763    4.2086 H   0  0  0  0  0  0  0  0  0  0  0  0
   -4.6774    2.0653    0.2409 H   0  0  0  0  0  0  0  0  0  0  0  0
   -4.8875    0.3360   -0.2874 H   0  0  0  0  0  0  0  0  0  0  0  0
   -3.0539   -0.6676   -1.3143 H   0  0  0  0  0  0  0  0  0  0  0  0
   -1.7892    0.2557   -2.1259 H   0  0  0  0  0  0  0  0  0  0  0  0
   -4.4333   -0.8001   -3.0933 H   0  0  0  0  0  0  0  0  0  0  0  0
   -2.8497   -0.6462   -3.8977 H   0  0  0  0  0  0  0  0  0  0  0  0
   -5.7282    2.2725   -4.1594 H   0  0  0  0  0  0  0  0  0  0  0  0
   -5.8234    0.8982   -2.9961 H   0  0  0  0  0  0  0  0  0  0  0  0
   -5.9214    0.6192   -4.7881 H   0  0  0  0  0  0  0  0  0  0  0  0
   -3.6005    3.1462   -4.1359 H   0  0  0  0  0  0  0  0  0  0  0  0
   -2.2501    2.0654   -3.5179 H   0  0  0  0  0  0  0  0  0  0  0  0
   -4.8944    2.6257   -2.0757 H   0  0  0  0  0  0  0  0  0  0  0  0
   -3.3162    3.4088   -1.7332 H   0  0  0  0  0  0  0  0  0  0  0  0
   -0.6734    2.8537    4.5113 H   0  0  0  0  0  0  0  0  0  0  0  0
    4.6542   -0.2997    3.3966 H   0  0  0  0  0  0  0  0  0  0  0  0
    5.2351    0.3558    1.7705 H   0  0  0  0  0  0  0  0  0  0  0  0
    4.8883    1.4683    3.1409 H   0  0  0  0  0  0  0  0  0  0  0  0
  1  2  1  0
  1  6  1  0
  2  3  1  0
  3  4  1  0
  3  7  1  0
  4  5  1  0
  5  6  1  0
  7  8  1  0
  7 12  1  0
  8  9  1  0
  9 10  1  0
 10 11  1  0
 11 12  1  0
 11 13  1  0
 13 14  1  0
 14 15  1  0
 14 19  1  0
 15 16  1  0
 15 37  1  0
 16 17  1  0
 17 18  1  0
 18 19  1  0
 18 20  1  0
 20 21  1  0
 21 22  1  0
 21 36  1  0
 22 23  1  0
 22 27  1  0
 23 24  1  0
 24 25  1  0
 25 26  1  0
 25 28  1  0
 26 27  1  0
 28 29  1  0
 29 30  1  0
 29 35  1  0
 30 31  1  0
 31 32  1  0
 32 33  1  0
 32 34  1  0
 34 35  1  0
  1 38  1  0
  1 39  1  0
  2 40  1  0
  2 41  1  0
  3 42  1  6
  4 43  1  0
  4 44  1  0
  5 45  1  0
  6 46  1  0
  6 47  1  0
  7 48  1  0
  8 49  1  0
  8 50  1  0
  9 51  1  0
  9 52  1  0
 10 53  1  0
 11 54  1  0
 12 55  1  0
 13 56  1  0
 14 57  1  6
 15 58  1  6
 16 59  1  0
 16 60  1  0
 17 61  1  0
 17 62  1  0
 18 63  1  0
 19 64  1  0
 19 65  1  0
 20 66  1  0
 21 67  1  0
 22 68  1  0
 23 69  1  0
 23 70  1  0
 24 71  1  0
 24 72  1  0
 25 73  1  0
 26 74  1  0
 26 75  1  0
 27 76  1  0
 27 77  1  0
 28 78  1  0
 28 79  1  0
 30 80  1  0
 30 81  1  0
 31 82  1  0
 31 83  1  0
 33 84  1  0
 33 85  1  0
 33 86  1  0
 34 87  1  0
 34 88  1  0
 35 89  1  0
 35 90  1  0
 36 91  1  0
 37 92  1  0
 37 93  1  0
 37 94  1  0
M  END
$$$$
SRC-ABL TYROSINE KINASE ANCESTOR
     RDKit          3D

 94 98  0  0  0  0  0  0  0  0999 V2000
    4.2194   -1.8696   -3.5758 C   0  0  0  0  0  0  0  0  0  0  0  0
    4.0803   -2.7672   -2.3781 C   0  0  0  0  0  0  0  0  0  0  0  0
    2.7802   -2.5531   -1.6432 C   0  0  1  0  0  0  0  0  0  0  0  0
    1.5949   -2.4907   -2.5563 C   0  0  0  0  0  0  0  0  0  0  0  0
    1.8550   -1.7247   -3.7543 N   0  0  0  0  0  0  0  0  0  0  0  0
    3.0298   -2.1250   -4.4697 C   0  0  0  0  0  0  0  0  0  0  0  0
    2.6914   -3.6076   -0.5673 C   0  0  0  0  0  0  0  0  0  0  0  0
    2.7598   -5.0016   -1.1295 C   0  0  0  0  0  0  0  0  0  0  0  0
    2.0511   -6.0602   -0.3794 C   0  0  0  0  0  0  0  0  0  0  0  0
    0.9913   -5.6194    0.4700 N   0  0  0  0  0  0  0  0  0  0  0  0
    0.4866   -4.2976    0.0934 C   0  0  0  0  0  0  0  0  0  0  0  0
    1.5714   -3.4052    0.3212 N   0  0  0  0  0  0  0  0  0  0  0  0
   -0.5884   -4.0363    0.9927 N   0  0  0  0  0  0  0  0  0  0  0  0
   -1.3785   -2.8633    0.7779 C   0  0  1  0  0  0  0  0  0  0  0  0
   -2.6223   -2.8518    1.6240 C   0  0  1  0  0  0  0  0  0  0  0  0
   -2.6289   -1.9766    2.8143 C   0  0  0  0  0  0  0  0  0  0  0  0
   -2.0221   -0.6318    2.5607 C   0  0  0  0  0  0  0  0  0  0  0  0
   -0.5388   -0.9281    2.1954 C   0  0  0  0  0  0  0  0  0  0  0  0
   -0.6708   -1.5577    0.8177 C   0  0  0  0  0  0  0  0  0  0  0  0
    0.0558    0.3469    2.0624 N   0  0  0  0  0  0  0  0  0  0  0  0
    1.4579    0.4711    1.9628 C   0  0  0  0  0  0  0  0  0  0  0  0
    1.9661    1.8930    1.7210 C   0  0  0  0  0  0  0  0  0  0  0  0
    1.5299    2.7634    2.8345 C   0  0  0  0  0  0  0  0  0  0  0  0
    0.4593    3.7514    2.5715 C   0  0  0  0  0  0  0  0  0  0  0  0
    0.3054    4.2568    1.1946 C   0  0  0  0  0  0  0  0  0  0  0  0
    1.2716    3.7683    0.1686 C   0  0  0  0  0  0  0  0  0  0  0  0
    1.7904    2.3910    0.3390 C   0  0  0  0  0  0  0  0  0  0  0  0
   -1.1193    3.9085    0.7305 C   0  0  0  0  0  0  0  0  0  0  0  0
   -1.3830    4.3547   -0.5944 N   0  0  0  0  0  0  0  0  0  0  0  0
   -1.4673    5.7626   -0.7877 C   0  0  0  0  0  0  0  0  0  0  0  0
   -2.8816    6.2963   -0.6178 C   0  0  0  0  0  0  0  0  0  0  0  0
   -3.6599    5.8285   -1.7321 N   0  0  0  0  0  0  0  0  0  0  0  0
   -3.4744    6.7424   -2.8449 C   0  0  0  0  0  0  0  0  0  0  0  0
   -3.2356    4.5101   -2.1909 C   0  0  0  0  0  0  0  0  0  0  0  0
   -2.6018    3.7275   -1.0550 C   0  0  0  0  0  0  0  0  0  0  0  0
    2.1303   -0.4594    1.2334 O   0  0  0  0  0  0  0  0  0  0  0  0
   -3.8287   -2.6560    0.7286 C   0  0  0  0  0  0  0  0  0  0  0  0
    5.1738   -2.1355   -4.0679 H   0  0  0  0  0  0  0  0  0  0  0  0
    4.1843   -0.8020   -3.2790 H   0  0  0  0  0  0  0  0  0  0  0  0
    4.9186   -2.5810   -1.6791 H   0  0  0  0  0  0  0  0  0  0  0  0
    4.1801   -3.8148   -2.7291 H   0  0  0  0  0  0  0  0  0  0  0  0
    2.8937   -1.5713   -1.1274 H   0  0  0  0  0  0  0  0  0  0  0  0
    1.2011   -3.4543   -2.8843 H   0  0  0  0  0  0  0  0  0  0  0  0
    0.7790   -1.9604   -2.0211 H   0  0  0  0  0  0  0  0  0  0  0  0
    1.0372   -1.8258   -4.3933 H   0  0  0  0  0  0  0  0  0  0  0  0
    3.0387   -3.2043   -4.7551 H   0  0  0  0  0  0  0  0  0  0  0  0
    3.0891   -1.4706   -5.3670 H   0  0  0  0  0  0  0  0  0  0  0  0
    3.5996   -3.4650    0.0560 H   0  0  0  0  0  0  0  0  0  0  0  0
    3.8377   -5.3067   -1.2840 H   0  0  0  0  0  0  0  0  0  0  0  0
    2.3464   -4.9595   -2.1580 H   0  0  0  0  0  0  0  0  0  0  0  0
    2.7887   -6.5696    0.2972 H   0  0  0  0  0  0  0  0  0  0  0  0
    1.6809   -6.8800   -1.0283 H   0  0  0  0  0  0  0  0  0  0  0  0
    0.1758   -6.2612    0.3757 H   0  0  0  0  0  0  0  0  0  0  0  0
    0.0898   -4.2933   -0.9336 H   0  0  0  0  0  0  0  0  0  0  0  0
    1.8875   -3.5749    1.3034 H   0  0  0  0  0  0  0  0  0  0  0  0
   -0.1894   -3.9725    1.9630 H   0  0  0  0  0  0  0  0  0  0  0  0
   -1.7391   -2.9687   -0.3006 H   0  0  0  0  0  0  0  0  0  0  0  0
   -2.7201   -3.9142    2.0134 H   0  0  0  0  0  0  0  0  0  0  0  0
   -2.0583   -2.4535    3.6339 H   0  0  0  0  0  0  0  0  0  0  0  0
   -3.6913   -1.8492    3.1313 H   0  0  0  0  0  0  0  0  0  0  0  0
   -1.9712   -0.0596    3.5043 H   0  0  0  0  0  0  0  0  0  0  0  0
   -2.4737   -0.0930    1.7287 H   0  0  0  0  0  0  0  0  0  0  0  0
   -0.1889   -1.5952    2.9722 H   0  0  0  0  0  0  0  0  0  0  0  0
    0.2850   -1.5111    0.3238 H   0  0  0  0  0  0  0  0  0  0  0  0
   -1.3256   -0.8207    0.2514 H   0  0  0  0  0  0  0  0  0  0  0  0
   -0.4016    1.0871    2.6416 H   0  0  0  0  0  0  0  0  0  0  0  0
    1.8120    0.2658    3.0306 H   0  0  0  0  0  0  0  0  0  0  0  0
    3.0922    1.7694    1.8927 H   0  0  0  0  0  0  0  0  0  0  0  0
    1.1741    2.1117    3.6838 H   0  0  0  0  0  0  0  0  0  0  0  0
    2.4061    3.3156    3.2960 H   0  0  0  0  0  0  0  0  0  0  0  0
   -0.5503    3.4161    2.9779 H   0  0  0  0  0  0  0  0  0  0  0  0
    0.6557    4.6338    3.2692 H   0  0  0  0  0  0  0  0  0  0  0  0
    0.3045    5.3663    1.2142 H   0  0  0  0  0  0  0  0  0  0  0  0
    0.7861    3.8604   -0.8265 H   0  0  0  0  0  0  0  0  0  0  0  0
    2.1077    4.5021    0.1247 H   0  0  0  0  0  0  0  0  0  0  0  0
    1.1182    1.6593   -0.1849 H   0  0  0  0  0  0  0  0  0  0  0  0
    2.7427    2.2934   -0.2243 H   0  0  0  0  0  0  0  0  0  0  0  0
   -1.1723    2.7856    0.7061 H   0  0  0  0  0  0  0  0  0  0  0  0
   -1.8726    4.2404    1.4476 H   0  0  0  0  0  0  0  0  0  0  0  0
   -0.7906    6.3744   -0.1741 H   0  0  0  0  0  0  0  0  0  0  0  0
   -1.1898    5.9882   -1.8424 H   0  0  0  0  0  0  0  0  0  0  0  0
   -3.2831    6.0102    0.3678 H   0  0  0  0  0  0  0  0  0  0  0  0
   -2.7812    7.4210   -0.6525 H   0  0  0  0  0  0  0  0  0  0  0  0
   -3.5702    7.8017   -2.5203 H   0  0  0  0  0  0  0  0  0  0  0  0
   -4.2590    6.5776   -3.6269 H   0  0  0  0  0  0  0  0  0  0  0  0
   -2.4749    6.6371   -3.3127 H   0  0  0  0  0  0  0  0  0  0  0  0
   -4.1605    3.9553   -2.4517 H   0  0  0  0  0  0  0  0  0  0  0  0
   -2.6128    4.5532   -3.0956 H   0  0  0  0  0  0  0  0  0  0  0  0
   -3.3910    3.6843   -0.2538 H   0  0  0  0  0  0  0  0  0  0  0  0
   -2.4804    2.6930   -1.3935 H   0  0  0  0  0  0  0  0  0  0  0  0
    2.8562   -0.9452    1.6696 H   0  0  0  0  0  0  0  0  0  0  0  0
   -3.8729   -1.6422    0.3091 H   0  0  0  0  0  0  0  0  0  0  0  0
   -4.7528   -2.9554    1.2639 H   0  0  0  0  0  0  0  0  0  0  0  0
   -3.7029   -3.3550   -0.1277 H   0  0  0  0  0  0  0  0  0  0  0  0
  1  2  1  0
  1  6  1  0
  2  3  1  0
  3  4  1  0
  3  7  1  0
  4  5  1  0
  5  6  1  0
  7  8  1  0
  7 12  1  0
  8  9  1  0
  9 10  1  0
 10 11  1  0
 11 12  1  0
 11 13  1  0
 13 14  1  0
 14 15  1  0
 14 19  1  0
 15 16  1  0
 15 37  1  0
 16 17  1  0
 17 18  1  0
 18 19  1  0
 18 20  1  0
 20 21  1  0
 21 22  1  0
 21 36  1  0
 22 23  1  0
 22 27  1  0
 23 24  1  0
 24 25  1  0
 25 26  1  0
 25 28  1  0
 26 27  1  0
 28 29  1  0
 29 30  1  0
 29 35  1  0
 30 31  1  0
 31 32  1  0
 32 33  1  0
 32 34  1  0
 34 35  1  0
  1 38  1  0
  1 39  1  0
  2 40  1  0
  2 41  1  0
  3 42  1  1
  4 43  1  0
  4 44  1  0
  5 45  1  0
  6 46  1  0
  6 47  1  0
  7 48  1  0
  8 49  1  0
  8 50  1  0
  9 51  1  0
  9 52  1  0
 10 53  1  0
 11 54  1  0
 12 55  1  0
 13 56  1  0
 14 57  1  6
 15 58  1  1
 16 59  1  0
 16 60  1  0
 17 61  1  0
 17 62  1  0
 18 63  1  0
 19 64  1  0
 19 65  1  0
 20 66  1  0
 21 67  1  0
 22 68  1  0
 23 69  1  0
 23 70  1  0
 24 71  1  0
 24 72  1  0
 25 73  1  0
 26 74  1  0
 26 75  1  0
 27 76  1  0
 27 77  1  0
 28 78  1  0
 28 79  1  0
 30 80  1  0
 30 81  1  0
 31 82  1  0
 31 83  1  0
 33 84  1  0
 33 85  1  0
 33 86  1  0
 34 87  1  0
 34 88  1  0
 35 89  1  0
 35 90  1  0
 36 91  1  0
 37 92  1  0
 37 93  1  0
 37 94  1  0
M  END
$$$$
SRC-ABL TYROSINE KINASE ANCESTOR
     RDKit          3D

 94 98  0  0  0  0  0  0  0  0999 V2000
   -1.9116   -1.5312    3.0220 C   0  0  0  0  0  0  0  0  0  0  0  0
   -1.1715   -2.4258    2.0621 C   0  0  0  0  0  0  0  0  0  0  0  0
   -1.9898   -3.5713    1.5424 C   0  0  1  0  0  0  0  0  0  0  0  0
   -2.6691   -4.2033    2.7254 C   0  0  0  0  0  0  0  0  0  0  0  0
   -3.5097   -3.2416    3.4429 N   0  0  0  0  0  0  0  0  0  0  0  0
   -2.6282   -2.3040    4.1032 C   0  0  0  0  0  0  0  0  0  0  0  0
   -3.0034   -3.1382    0.5262 C   0  0  0  0  0  0  0  0  0  0  0  0
   -3.8193   -4.2981    0.0166 C   0  0  0  0  0  0  0  0  0  0  0  0
   -4.9552   -3.7123   -0.7950 C   0  0  0  0  0  0  0  0  0  0  0  0
   -4.7115   -2.2672   -0.9487 N   0  0  0  0  0  0  0  0  0  0  0  0
   -3.4219   -2.1726   -1.5848 C   0  0  0  0  0  0  0  0  0  0  0  0
   -2.3630   -2.5492   -0.6339 N   0  0  0  0  0  0  0  0  0  0  0  0
   -3.1785   -0.9975   -2.3088 N   0  0  0  0  0  0  0  0  0  0  0  0
   -3.1817    0.2589   -1.6833 C   0  0  1  0  0  0  0  0  0  0  0  0
   -2.2202    0.4723   -0.5631 C   0  0  1  0  0  0  0  0  0  0  0  0
   -0.7834    0.5477   -1.0121 C   0  0  0  0  0  0  0  0  0  0  0  0
   -0.6881    0.6555   -2.4974 C   0  0  0  0  0  0  0  0  0  0  0  0
   -1.5699    1.7315   -2.9867 C   0  0  0  0  0  0  0  0  0  0  0  0
   -3.0103    1.3471   -2.6930 C   0  0  0  0  0  0  0  0  0  0  0  0
   -1.2961    3.0823   -2.6814 N   0  0  0  0  0  0  0  0  0  0  0  0
   -0.1150    3.6991   -3.1263 C   0  0  0  0  0  0  0  0  0  0  0  0
    1.0158    3.5946   -2.1784 C   0  0  0  0  0  0  0  0  0  0  0  0
    0.8431    4.2247   -0.8376 C   0  0  0  0  0  0  0  0  0  0  0  0
    2.2174    4.3746   -0.1950 C   0  0  0  0  0  0  0  0  0  0  0  0
    3.1325    3.2082   -0.5491 C   0  0  0  0  0  0  0  0  0  0  0  0
    3.3863    3.1871   -2.0500 C   0  0  0  0  0  0  0  0  0  0  0  0
    2.3365    4.0649   -2.7565 C   0  0  0  0  0  0  0  0  0  0  0  0
    4.4701    3.4490    0.0911 C   0  0  0  0  0  0  0  0  0  0  0  0
    5.3792    2.3672   -0.2077 N   0  0  0  0  0  0  0  0  0  0  0  0
    6.7471    2.7036    0.1721 C   0  0  0  0  0  0  0  0  0  0  0  0
    7.0300    2.6292    1.6279 C   0  0  0  0  0  0  0  0  0  0  0  0
    6.5830    1.3906    2.2381 N   0  0  0  0  0  0  0  0  0  0  0  0
    6.6596    1.5520    3.6751 C   0  0  0  0  0  0  0  0  0  0  0  0
    5.2090    1.0972    1.8928 C   0  0  0  0  0  0  0  0  0  0  0  0
    4.9975    1.0990    0.3988 C   0  0  0  0  0  0  0  0  0  0  0  0
   -0.2968    5.0933   -3.3710 O   0  0  0  0  0  0  0  0  0  0  0  0
   -2.6713    1.7151    0.1806 C   0  0  0  0  0  0  0  0  0  0  0  0
   -1.1564   -0.9053    3.5396 H   0  0  0  0  0  0  0  0  0  0  0  0
   -2.6126   -0.8389    2.5417 H   0  0  0  0  0  0  0  0  0  0  0  0
   -0.6851   -1.8140    1.3069 H   0  0  0  0  0  0  0  0  0  0  0  0
   -0.3478   -2.9038    2.6722 H   0  0  0  0  0  0  0  0  0  0  0  0
   -1.2953   -4.3256    1.1317 H   0  0  0  0  0  0  0  0  0  0  0  0
   -1.8628   -4.4651    3.4633 H   0  0  0  0  0  0  0  0  0  0  0  0
   -3.1893   -5.1403    2.5239 H   0  0  0  0  0  0  0  0  0  0  0  0
   -4.0036   -3.7664    4.1958 H   0  0  0  0  0  0  0  0  0  0  0  0
   -1.9136   -2.8039    4.7811 H   0  0  0  0  0  0  0  0  0  0  0  0
   -3.1962   -1.5802    4.7024 H   0  0  0  0  0  0  0  0  0  0  0  0
   -3.6449   -2.3660    0.9585 H   0  0  0  0  0  0  0  0  0  0  0  0
   -3.1351   -4.9421   -0.5963 H   0  0  0  0  0  0  0  0  0  0  0  0
   -4.2803   -4.9131    0.8089 H   0  0  0  0  0  0  0  0  0  0  0  0
   -4.8468   -4.1110   -1.8259 H   0  0  0  0  0  0  0  0  0  0  0  0
   -5.9358   -3.9141   -0.3723 H   0  0  0  0  0  0  0  0  0  0  0  0
   -5.4175   -1.9609   -1.6821 H   0  0  0  0  0  0  0  0  0  0  0  0
   -3.3815   -3.0135   -2.3426 H   0  0  0  0  0  0  0  0  0  0  0  0
   -1.6459   -3.1647   -1.0620 H   0  0  0  0  0  0  0  0  0  0  0  0
   -3.3607   -1.0178   -3.3178 H   0  0  0  0  0  0  0  0  0  0  0  0
   -4.2099    0.4100   -1.2413 H   0  0  0  0  0  0  0  0  0  0  0  0
   -2.2564   -0.3341    0.1919 H   0  0  0  0  0  0  0  0  0  0  0  0
   -0.1900   -0.3362   -0.6935 H   0  0  0  0  0  0  0  0  0  0  0  0
   -0.3421    1.4078   -0.5298 H   0  0  0  0  0  0  0  0  0  0  0  0
   -1.0799   -0.3043   -2.9904 H   0  0  0  0  0  0  0  0  0  0  0  0
    0.3545    0.6400   -2.8626 H   0  0  0  0  0  0  0  0  0  0  0  0
   -1.4913    1.6760   -4.1366 H   0  0  0  0  0  0  0  0  0  0  0  0
   -3.5098    1.0092   -3.6208 H   0  0  0  0  0  0  0  0  0  0  0  0
   -3.5346    2.3011   -2.4248 H   0  0  0  0  0  0  0  0  0  0  0  0
   -2.1101    3.6725   -3.0335 H   0  0  0  0  0  0  0  0  0  0  0  0
    0.2440    3.2954   -4.1189 H   0  0  0  0  0  0  0  0  0  0  0  0
    1.1678    2.5176   -1.9750 H   0  0  0  0  0  0  0  0  0  0  0  0
    0.1497    3.6690   -0.2142 H   0  0  0  0  0  0  0  0  0  0  0  0
    0.4273    5.2565   -0.9324 H   0  0  0  0  0  0  0  0  0  0  0  0
    2.0505    4.3212    0.8971 H   0  0  0  0  0  0  0  0  0  0  0  0
    2.7178    5.3009   -0.4617 H   0  0  0  0  0  0  0  0  0  0  0  0
    2.7320    2.2610   -0.1556 H   0  0  0  0  0  0  0  0  0  0  0  0
    3.2628    2.1729   -2.4233 H   0  0  0  0  0  0  0  0  0  0  0  0
    4.3715    3.6375   -2.2366 H   0  0  0  0  0  0  0  0  0  0  0  0
    2.4807    5.1131   -2.4593 H   0  0  0  0  0  0  0  0  0  0  0  0
    2.4178    3.9794   -3.8379 H   0  0  0  0  0  0  0  0  0  0  0  0
    4.3244    3.4549    1.1909 H   0  0  0  0  0  0  0  0  0  0  0  0
    4.9645    4.3790   -0.2601 H   0  0  0  0  0  0  0  0  0  0  0  0
    6.9381    3.7281   -0.1878 H   0  0  0  0  0  0  0  0  0  0  0  0
    7.3818    1.9554   -0.3677 H   0  0  0  0  0  0  0  0  0  0  0  0
    8.1549    2.6186    1.7326 H   0  0  0  0  0  0  0  0  0  0  0  0
    6.6947    3.5225    2.1518 H   0  0  0  0  0  0  0  0  0  0  0  0
    5.9860    0.9015    4.2389 H   0  0  0  0  0  0  0  0  0  0  0  0
    6.3361    2.6161    3.8710 H   0  0  0  0  0  0  0  0  0  0  0  0
    7.7161    1.4976    4.0247 H   0  0  0  0  0  0  0  0  0  0  0  0
    4.4939    1.7663    2.3693 H   0  0  0  0  0  0  0  0  0  0  0  0
    5.0041    0.0635    2.2522 H   0  0  0  0  0  0  0  0  0  0  0  0
    3.9753    0.8542    0.1599 H   0  0  0  0  0  0  0  0  0  0  0  0
    5.6247    0.2906   -0.0895 H   0  0  0  0  0  0  0  0  0  0  0  0
   -1.1648    5.3562   -2.9684 H   0  0  0  0  0  0  0  0  0  0  0  0
   -1.7877    2.3186    0.5187 H   0  0  0  0  0  0  0  0  0  0  0  0
   -3.2191    1.4741    1.1319 H   0  0  0  0  0  0  0  0  0  0  0  0
   -3.3872    2.3277   -0.3985 H   0  0  0  0  0  0  0  0  0  0  0  0
  1  2  1  0
  1  6  1  0
  2  3  1  0
  3  4  1  0
  3  7  1  0
  4  5  1  0
  5  6  1  0
  7  8  1  0
  7 12  1  0
  8  9  1  0
  9 10  1  0
 10 11  1  0
 11 12  1  0
 11 13  1  0
 13 14  1  0
 14 15  1  0
 14 19  1  0
 15 16  1  0
 15 37  1  0
 16 17  1  0
 17 18  1  0
 18 19  1  0
 18 20  1  0
 20 21  1  0
 21 22  1  0
 21 36  1  0
 22 23  1  0
 22 27  1  0
 23 24  1  0
 24 25  1  0
 25 26  1  0
 25 28  1  0
 26 27  1  0
 28 29  1  0
 29 30  1  0
 29 35  1  0
 30 31  1  0
 31 32  1  0
 32 33  1  0
 32 34  1  0
 34 35  1  0
  1 38  1  0
  1 39  1  0
  2 40  1  0
  2 41  1  0
  3 42  1  6
  4 43  1  0
  4 44  1  0
  5 45  1  0
  6 46  1  0
  6 47  1  0
  7 48  1  0
  8 49  1  0
  8 50  1  0
  9 51  1  0
  9 52  1  0
 10 53  1  0
 11 54  1  0
 12 55  1  0
 13 56  1  0
 14 57  1  1
 15 58  1  1
 16 59  1  0
 16 60  1  0
 17 61  1  0
 17 62  1  0
 18 63  1  0
 19 64  1  0
 19 65  1  0
 20 66  1  0
 21 67  1  0
 22 68  1  0
 23 69  1  0
 23 70  1  0
 24 71  1  0
 24 72  1  0
 25 73  1  0
 26 74  1  0
 26 75  1  0
 27 76  1  0
 27 77  1  0
 28 78  1  0
 28 79  1  0
 30 80  1  0
 30 81  1  0
 31 82  1  0
 31 83  1  0
 33 84  1  0
 33 85  1  0
 33 86  1  0
 34 87  1  0
 34 88  1  0
 35 89  1  0
 35 90  1  0
 36 91  1  0
 37 92  1  0
 37 93  1  0
 37 94  1  0
M  END
$$$$
SRC-ABL TYROSINE KINASE ANCESTOR
     RDKit          3D

 94 98  0  0  0  0  0  0  0  0999 V2000
   -5.8024    3.7077   -1.4020 C   0  0  0  0  0  0  0  0  0  0  0  0
   -5.3225    3.4500   -2.8187 C   0  0  0  0  0  0  0  0  0  0  0  0
   -3.9028    3.8471   -3.0394 C   0  0  1  0  0  0  0  0  0  0  0  0
   -3.2480    4.0564   -1.6912 C   0  0  0  0  0  0  0  0  0  0  0  0
   -3.5741    2.9339   -0.8575 N   0  0  0  0  0  0  0  0  0  0  0  0
   -4.9482    2.9734   -0.3901 C   0  0  0  0  0  0  0  0  0  0  0  0
   -3.1286    2.7729   -3.7587 C   0  0  0  0  0  0  0  0  0  0  0  0
   -3.7341    2.4661   -5.1265 C   0  0  0  0  0  0  0  0  0  0  0  0
   -2.6220    1.6851   -5.8426 C   0  0  0  0  0  0  0  0  0  0  0  0
   -1.9152    0.9795   -4.7902 N   0  0  0  0  0  0  0  0  0  0  0  0
   -0.9621    1.9006   -4.1416 C   0  0  0  0  0  0  0  0  0  0  0  0
   -1.7678    3.1500   -4.0024 N   0  0  0  0  0  0  0  0  0  0  0  0
   -0.6345    1.5161   -2.8340 N   0  0  0  0  0  0  0  0  0  0  0  0
   -0.0602    0.2727   -2.5325 C   0  0  1  0  0  0  0  0  0  0  0  0
    1.3507    0.1208   -2.9535 C   0  0  1  0  0  0  0  0  0  0  0  0
    1.8992   -1.2758   -2.6648 C   0  0  0  0  0  0  0  0  0  0  0  0
    1.1069   -1.8768   -1.5327 C   0  0  0  0  0  0  0  0  0  0  0  0
    0.9212   -0.8034   -0.4993 C   0  0  0  0  0  0  0  0  0  0  0  0
   -0.1006    0.1666   -0.9914 C   0  0  0  0  0  0  0  0  0  0  0  0
    0.7602   -1.2726    0.8232 N   0  0  0  0  0  0  0  0  0  0  0  0
   -0.2975   -2.1585    1.1082 C   0  0  0  0  0  0  0  0  0  0  0  0
   -0.3131   -2.5488    2.5931 C   0  0  0  0  0  0  0  0  0  0  0  0
    0.9703   -3.2134    2.9411 C   0  0  0  0  0  0  0  0  0  0  0  0
    1.2155   -3.2920    4.4278 C   0  0  0  0  0  0  0  0  0  0  0  0
    1.2428   -1.8804    4.9532 C   0  0  0  0  0  0  0  0  0  0  0  0
   -0.0157   -1.1113    4.6788 C   0  0  0  0  0  0  0  0  0  0  0  0
   -0.8004   -1.4832    3.4885 C   0  0  0  0  0  0  0  0  0  0  0  0
    2.4370   -1.1065    4.4357 C   0  0  0  0  0  0  0  0  0  0  0  0
    3.7030   -1.6632    4.7819 N   0  0  0  0  0  0  0  0  0  0  0  0
    4.7299   -0.8130    4.2046 C   0  0  0  0  0  0  0  0  0  0  0  0
    5.7624   -0.3517    5.1757 C   0  0  0  0  0  0  0  0  0  0  0  0
    6.3610   -1.5324    5.7665 N   0  0  0  0  0  0  0  0  0  0  0  0
    6.7916   -2.3896    4.6580 C   0  0  0  0  0  0  0  0  0  0  0  0
    5.3290   -2.2063    6.4984 C   0  0  0  0  0  0  0  0  0  0  0  0
    3.9349   -1.6881    6.2130 C   0  0  0  0  0  0  0  0  0  0  0  0
   -1.5556   -1.8075    0.6998 O   0  0  0  0  0  0  0  0  0  0  0  0
    1.6640    0.3913   -4.3898 C   0  0  0  0  0  0  0  0  0  0  0  0
   -6.8430    3.4116   -1.2884 H   0  0  0  0  0  0  0  0  0  0  0  0
   -5.6815    4.7921   -1.2052 H   0  0  0  0  0  0  0  0  0  0  0  0
   -5.5677    2.4088   -3.1441 H   0  0  0  0  0  0  0  0  0  0  0  0
   -5.9471    4.0981   -3.4778 H   0  0  0  0  0  0  0  0  0  0  0  0
   -3.8158    4.8249   -3.5924 H   0  0  0  0  0  0  0  0  0  0  0  0
   -3.5328    5.0299   -1.2469 H   0  0  0  0  0  0  0  0  0  0  0  0
   -2.1439    4.0848   -1.7848 H   0  0  0  0  0  0  0  0  0  0  0  0
   -2.8904    2.7085   -0.1210 H   0  0  0  0  0  0  0  0  0  0  0  0
   -4.9561    3.5740    0.5419 H   0  0  0  0  0  0  0  0  0  0  0  0
   -5.3498    1.9799   -0.1419 H   0  0  0  0  0  0  0  0  0  0  0  0
   -3.1501    1.8522   -3.1770 H   0  0  0  0  0  0  0  0  0  0  0  0
   -3.9478    3.4118   -5.6704 H   0  0  0  0  0  0  0  0  0  0  0  0
   -4.5956    1.7771   -5.0661 H   0  0  0  0  0  0  0  0  0  0  0  0
   -1.9342    2.3635   -6.3802 H   0  0  0  0  0  0  0  0  0  0  0  0
   -3.0433    0.9960   -6.5958 H   0  0  0  0  0  0  0  0  0  0  0  0
   -1.4586    0.1235   -5.1513 H   0  0  0  0  0  0  0  0  0  0  0  0
   -0.1748    2.0762   -4.8682 H   0  0  0  0  0  0  0  0  0  0  0  0
   -1.6214    3.6945   -4.8708 H   0  0  0  0  0  0  0  0  0  0  0  0
   -1.3786    1.8044   -2.1654 H   0  0  0  0  0  0  0  0  0  0  0  0
   -0.6668   -0.5658   -2.9665 H   0  0  0  0  0  0  0  0  0  0  0  0
    1.9809    0.8638   -2.3683 H   0  0  0  0  0  0  0  0  0  0  0  0
    1.8792   -1.9030   -3.5785 H   0  0  0  0  0  0  0  0  0  0  0  0
    2.9541   -1.1553   -2.3471 H   0  0  0  0  0  0  0  0  0  0  0  0
    0.1025   -2.1374   -1.9335 H   0  0  0  0  0  0  0  0  0  0  0  0
    1.5854   -2.7909   -1.1238 H   0  0  0  0  0  0  0  0  0  0  0  0
    1.8995   -0.2236   -0.5019 H   0  0  0  0  0  0  0  0  0  0  0  0
   -1.1318   -0.0173   -0.6974 H   0  0  0  0  0  0  0  0  0  0  0  0
    0.1631    1.1932   -0.6019 H   0  0  0  0  0  0  0  0  0  0  0  0
    0.8530   -0.4583    1.4656 H   0  0  0  0  0  0  0  0  0  0  0  0
   -0.0608   -3.1336    0.5879 H   0  0  0  0  0  0  0  0  0  0  0  0
   -1.0804   -3.3833    2.5940 H   0  0  0  0  0  0  0  0  0  0  0  0
    1.7895   -2.6707    2.4486 H   0  0  0  0  0  0  0  0  0  0  0  0
    1.0062   -4.2634    2.5695 H   0  0  0  0  0  0  0  0  0  0  0  0
    2.1999   -3.7416    4.5822 H   0  0  0  0  0  0  0  0  0  0  0  0
    0.4279   -3.8430    4.9386 H   0  0  0  0  0  0  0  0  0  0  0  0
    1.3995   -1.9757    6.0486 H   0  0  0  0  0  0  0  0  0  0  0  0
    0.2894   -0.0226    4.7156 H   0  0  0  0  0  0  0  0  0  0  0  0
   -0.6623   -1.1974    5.5875 H   0  0  0  0  0  0  0  0  0  0  0  0
   -0.8576   -0.5506    2.8484 H   0  0  0  0  0  0  0  0  0  0  0  0
   -1.8918   -1.6326    3.7498 H   0  0  0  0  0  0  0  0  0  0  0  0
    2.3779   -0.1089    4.9633 H   0  0  0  0  0  0  0  0  0  0  0  0
    2.3591   -0.8622    3.3720 H   0  0  0  0  0  0  0  0  0  0  0  0
    4.2850    0.1155    3.7463 H   0  0  0  0  0  0  0  0  0  0  0  0
    5.1961   -1.3452    3.3673 H   0  0  0  0  0  0  0  0  0  0  0  0
    5.4085    0.3779    5.9048 H   0  0  0  0  0  0  0  0  0  0  0  0
    6.5656    0.1416    4.5821 H   0  0  0  0  0  0  0  0  0  0  0  0
    5.9209   -2.9910    4.3250 H   0  0  0  0  0  0  0  0  0  0  0  0
    7.6425   -2.9945    4.9945 H   0  0  0  0  0  0  0  0  0  0  0  0
    7.1479   -1.7455    3.8281 H   0  0  0  0  0  0  0  0  0  0  0  0
    5.5016   -1.9989    7.5956 H   0  0  0  0  0  0  0  0  0  0  0  0
    5.3303   -3.2988    6.3632 H   0  0  0  0  0  0  0  0  0  0  0  0
    3.2510   -2.4025    6.7419 H   0  0  0  0  0  0  0  0  0  0  0  0
    3.7559   -0.6957    6.6697 H   0  0  0  0  0  0  0  0  0  0  0  0
   -1.8950   -2.3203   -0.0915 H   0  0  0  0  0  0  0  0  0  0  0  0
    0.9211    0.0215   -5.1123 H   0  0  0  0  0  0  0  0  0  0  0  0
    2.0265    1.4272   -4.5697 H   0  0  0  0  0  0  0  0  0  0  0  0
    2.5929   -0.2267   -4.6442 H   0  0  0  0  0  0  0  0  0  0  0  0
  1  2  1  0
  1  6  1  0
  2  3  1  0
  3  4  1  0
  3  7  1  0
  4  5  1  0
  5  6  1  0
  7  8  1  0
  7 12  1  0
  8  9  1  0
  9 10  1  0
 10 11  1  0
 11 12  1  0
 11 13  1  0
 13 14  1  0
 14 15  1  0
 14 19  1  0
 15 16  1  0
 15 37  1  0
 16 17  1  0
 17 18  1  0
 18 19  1  0
 18 20  1  0
 20 21  1  0
 21 22  1  0
 21 36  1  0
 22 23  1  0
 22 27  1  0
 23 24  1  0
 24 25  1  0
 25 26  1  0
 25 28  1  0
 26 27  1  0
 28 29  1  0
 29 30  1  0
 29 35  1  0
 30 31  1  0
 31 32  1  0
 32 33  1  0
 32 34  1  0
 34 35  1  0
  1 38  1  0
  1 39  1  0
  2 40  1  0
  2 41  1  0
  3 42  1  6
  4 43  1  0
  4 44  1  0
  5 45  1  0
  6 46  1  0
  6 47  1  0
  7 48  1  0
  8 49  1  0
  8 50  1  0
  9 51  1  0
  9 52  1  0
 10 53  1  0
 11 54  1  0
 12 55  1  0
 13 56  1  0
 14 57  1  6
 15 58  1  1
 16 59  1  0
 16 60  1  0
 17 61  1  0
 17 62  1  0
 18 63  1  0
 19 64  1  0
 19 65  1  0
 20 66  1  0
 21 67  1  0
 22 68  1  0
 23 69  1  0
 23 70  1  0
 24 71  1  0
 24 72  1  0
 25 73  1  0
 26 74  1  0
 26 75  1  0
 27 76  1  0
 27 77  1  0
 28 78  1  0
 28 79  1  0
 30 80  1  0
 30 81  1  0
 31 82  1  0
 31 83  1  0
 33 84  1  0
 33 85  1  0
 33 86  1  0
 34 87  1  0
 34 88  1  0
 35 89  1  0
 35 90  1  0
 36 91  1  0
 37 92  1  0
 37 93  1  0
 37 94  1  0
M  END
$$$$
SRC-ABL TYROSINE KINASE ANCESTOR
     RDKit          3D

 94 98  0  0  0  0  0  0  0  0999 V2000
    3.5211   -4.9119   -0.7336 C   0  0  0  0  0  0  0  0  0  0  0  0
    2.1276   -4.5751   -1.1514 C   0  0  0  0  0  0  0  0  0  0  0  0
    1.0897   -5.5558   -0.7363 C   0  0  1  0  0  0  0  0  0  0  0  0
    1.4340   -6.2919    0.5379 C   0  0  0  0  0  0  0  0  0  0  0  0
    2.7931   -6.8574    0.4434 N   0  0  0  0  0  0  0  0  0  0  0  0
    3.6507   -5.6650    0.5461 C   0  0  0  0  0  0  0  0  0  0  0  0
   -0.2991   -4.9972   -0.5911 C   0  0  0  0  0  0  0  0  0  0  0  0
   -0.7874   -4.4158   -1.8909 C   0  0  0  0  0  0  0  0  0  0  0  0
   -2.0055   -3.5480   -1.6472 C   0  0  0  0  0  0  0  0  0  0  0  0
   -2.5214   -3.9751   -0.3404 N   0  0  0  0  0  0  0  0  0  0  0  0
   -1.5933   -3.3817    0.6391 C   0  0  0  0  0  0  0  0  0  0  0  0
   -0.3675   -4.1046    0.5136 N   0  0  0  0  0  0  0  0  0  0  0  0
   -1.5678   -2.0025    0.3468 N   0  0  0  0  0  0  0  0  0  0  0  0
   -0.7982   -1.1193    1.1130 C   0  0  1  0  0  0  0  0  0  0  0  0
   -1.1830   -1.0902    2.5970 C   0  0  1  0  0  0  0  0  0  0  0  0
   -0.2591   -0.1662    3.3185 C   0  0  0  0  0  0  0  0  0  0  0  0
    0.4564    0.8054    2.4155 C   0  0  0  0  0  0  0  0  0  0  0  0
    1.2216    0.2002    1.3012 C   0  0  0  0  0  0  0  0  0  0  0  0
    0.6789   -1.1971    1.0585 C   0  0  0  0  0  0  0  0  0  0  0  0
    1.1272    0.8767    0.0418 N   0  0  0  0  0  0  0  0  0  0  0  0
    1.5836    2.2297    0.0324 C   0  0  0  0  0  0  0  0  0  0  0  0
    1.4134    2.7725   -1.3736 C   0  0  0  0  0  0  0  0  0  0  0  0
    0.0281    2.7723   -1.8877 C   0  0  0  0  0  0  0  0  0  0  0  0
   -0.7755    4.0155   -1.6317 C   0  0  0  0  0  0  0  0  0  0  0  0
   -0.0441    5.2968   -1.9562 C   0  0  0  0  0  0  0  0  0  0  0  0
    1.3923    5.1099   -2.3168 C   0  0  0  0  0  0  0  0  0  0  0  0
    2.0934    4.1078   -1.4278 C   0  0  0  0  0  0  0  0  0  0  0  0
   -0.2356    6.3187   -0.8548 C   0  0  0  0  0  0  0  0  0  0  0  0
    0.4241    7.5653   -1.0722 N   0  0  0  0  0  0  0  0  0  0  0  0
    0.2091    8.5087    0.0141 C   0  0  0  0  0  0  0  0  0  0  0  0
   -1.2564    8.7204    0.1776 C   0  0  0  0  0  0  0  0  0  0  0  0
   -2.0132    8.8491   -1.0058 N   0  0  0  0  0  0  0  0  0  0  0  0
   -3.3979    8.5180   -0.9254 C   0  0  0  0  0  0  0  0  0  0  0  0
   -1.3855    8.7221   -2.2595 C   0  0  0  0  0  0  0  0  0  0  0  0
   -0.0026    8.1799   -2.3034 C   0  0  0  0  0  0  0  0  0  0  0  0
    2.9440    2.3713    0.3394 O   0  0  0  0  0  0  0  0  0  0  0  0
   -2.6053   -0.5922    2.7399 C   0  0  0  0  0  0  0  0  0  0  0  0
    4.0794   -5.4659   -1.5183 H   0  0  0  0  0  0  0  0  0  0  0  0
    4.1105   -3.9571   -0.5909 H   0  0  0  0  0  0  0  0  0  0  0  0
    2.1459   -4.5581   -2.2827 H   0  0  0  0  0  0  0  0  0  0  0  0
    1.9139   -3.5359   -0.8713 H   0  0  0  0  0  0  0  0  0  0  0  0
    1.0372   -6.3663   -1.5249 H   0  0  0  0  0  0  0  0  0  0  0  0
    1.4961   -5.6153    1.4149 H   0  0  0  0  0  0  0  0  0  0  0  0
    0.7167   -7.1238    0.6613 H   0  0  0  0  0  0  0  0  0  0  0  0
    2.9212   -7.3837    1.3368 H   0  0  0  0  0  0  0  0  0  0  0  0
    3.2323   -5.0479    1.3943 H   0  0  0  0  0  0  0  0  0  0  0  0
    4.7036   -5.9112    0.7030 H   0  0  0  0  0  0  0  0  0  0  0  0
   -0.9525   -5.8939   -0.3773 H   0  0  0  0  0  0  0  0  0  0  0  0
   -0.0273   -3.8665   -2.4666 H   0  0  0  0  0  0  0  0  0  0  0  0
   -1.1219   -5.2592   -2.5341 H   0  0  0  0  0  0  0  0  0  0  0  0
   -1.6581   -2.4965   -1.6406 H   0  0  0  0  0  0  0  0  0  0  0  0
   -2.7645   -3.6321   -2.4321 H   0  0  0  0  0  0  0  0  0  0  0  0
   -3.4710   -3.5761   -0.2557 H   0  0  0  0  0  0  0  0  0  0  0  0
   -2.1011   -3.5375    1.6285 H   0  0  0  0  0  0  0  0  0  0  0  0
   -0.3187   -4.7168    1.3847 H   0  0  0  0  0  0  0  0  0  0  0  0
   -2.5540   -1.6586    0.3478 H   0  0  0  0  0  0  0  0  0  0  0  0
   -1.1142   -0.0882    0.7694 H   0  0  0  0  0  0  0  0  0  0  0  0
   -1.0555   -2.1137    3.0406 H   0  0  0  0  0  0  0  0  0  0  0  0
   -0.8521    0.4330    4.0384 H   0  0  0  0  0  0  0  0  0  0  0  0
    0.4853   -0.7334    3.9404 H   0  0  0  0  0  0  0  0  0  0  0  0
   -0.2430    1.6067    2.1195 H   0  0  0  0  0  0  0  0  0  0  0  0
    1.2173    1.3226    3.0722 H   0  0  0  0  0  0  0  0  0  0  0  0
    2.3095    0.0384    1.5647 H   0  0  0  0  0  0  0  0  0  0  0  0
    1.0945   -1.8529    1.8546 H   0  0  0  0  0  0  0  0  0  0  0  0
    1.0951   -1.5058    0.0881 H   0  0  0  0  0  0  0  0  0  0  0  0
    1.6777    0.3336   -0.6517 H   0  0  0  0  0  0  0  0  0  0  0  0
    1.0302    2.9170    0.6713 H   0  0  0  0  0  0  0  0  0  0  0  0
    2.0134    2.0730   -2.0268 H   0  0  0  0  0  0  0  0  0  0  0  0
   -0.5535    1.9305   -1.4943 H   0  0  0  0  0  0  0  0  0  0  0  0
    0.0456    2.6338   -2.9969 H   0  0  0  0  0  0  0  0  0  0  0  0
   -1.1424    4.1022   -0.5843 H   0  0  0  0  0  0  0  0  0  0  0  0
   -1.7008    3.9063   -2.2345 H   0  0  0  0  0  0  0  0  0  0  0  0
   -0.5595    5.7269   -2.8634 H   0  0  0  0  0  0  0  0  0  0  0  0
    1.8989    6.0931   -2.1067 H   0  0  0  0  0  0  0  0  0  0  0  0
    1.5328    4.8989   -3.3831 H   0  0  0  0  0  0  0  0  0  0  0  0
    2.1434    4.5612   -0.4282 H   0  0  0  0  0  0  0  0  0  0  0  0
    3.1381    4.0367   -1.7832 H   0  0  0  0  0  0  0  0  0  0  0  0
   -1.3155    6.5256   -0.6796 H   0  0  0  0  0  0  0  0  0  0  0  0
    0.1105    5.8617    0.1121 H   0  0  0  0  0  0  0  0  0  0  0  0
    0.6157    8.1179    0.9498 H   0  0  0  0  0  0  0  0  0  0  0  0
    0.6824    9.4498   -0.2905 H   0  0  0  0  0  0  0  0  0  0  0  0
   -1.6719    7.9399    0.8850 H   0  0  0  0  0  0  0  0  0  0  0  0
   -1.4025    9.6759    0.7694 H   0  0  0  0  0  0  0  0  0  0  0  0
   -3.8421    8.1853   -1.8676 H   0  0  0  0  0  0  0  0  0  0  0  0
   -3.6418    7.7888   -0.0977 H   0  0  0  0  0  0  0  0  0  0  0  0
   -3.9439    9.4494   -0.6222 H   0  0  0  0  0  0  0  0  0  0  0  0
   -2.0173    8.0101   -2.8749 H   0  0  0  0  0  0  0  0  0  0  0  0
   -1.4520    9.6774   -2.8648 H   0  0  0  0  0  0  0  0  0  0  0  0
    0.1996    7.5655   -3.1996 H   0  0  0  0  0  0  0  0  0  0  0  0
    0.6829    9.0739   -2.4330 H   0  0  0  0  0  0  0  0  0  0  0  0
    3.3749    1.5311    0.6205 H   0  0  0  0  0  0  0  0  0  0  0  0
   -3.3469   -1.3986    2.7964 H   0  0  0  0  0  0  0  0  0  0  0  0
   -2.8621    0.0379    1.8552 H   0  0  0  0  0  0  0  0  0  0  0  0
   -2.7101    0.0752    3.6329 H   0  0  0  0  0  0  0  0  0  0  0  0
  1  2  1  0
  1  6  1  0
  2  3  1  0
  3  4  1  0
  3  7  1  0
  4  5  1  0
  5  6  1  0
  7  8  1  0
  7 12  1  0
  8  9  1  0
  9 10  1  0
 10 11  1  0
 11 12  1  0
 11 13  1  0
 13 14  1  0
 14 15  1  0
 14 19  1  0
 15 16  1  0
 15 37  1  0
 16 17  1  0
 17 18  1  0
 18 19  1  0
 18 20  1  0
 20 21  1  0
 21 22  1  0
 21 36  1  0
 22 23  1  0
 22 27  1  0
 23 24  1  0
 24 25  1  0
 25 26  1  0
 25 28  1  0
 26 27  1  0
 28 29  1  0
 29 30  1  0
 29 35  1  0
 30 31  1  0
 31 32  1  0
 32 33  1  0
 32 34  1  0
 34 35  1  0
  1 38  1  0
  1 39  1  0
  2 40  1  0
  2 41  1  0
  3 42  1  6
  4 43  1  0
  4 44  1  0
  5 45  1  0
  6 46  1  0
  6 47  1  0
  7 48  1  0
  8 49  1  0
  8 50  1  0
  9 51  1  0
  9 52  1  0
 10 53  1  0
 11 54  1  0
 12 55  1  0
 13 56  1  0
 14 57  1  6
 15 58  1  1
 16 59  1  0
 16 60  1  0
 17 61  1  0
 17 62  1  0
 18 63  1  0
 19 64  1  0
 19 65  1  0
 20 66  1  0
 21 67  1  0
 22 68  1  0
 23 69  1  0
 23 70  1  0
 24 71  1  0
 24 72  1  0
 25 73  1  0
 26 74  1  0
 26 75  1  0
 27 76  1  0
 27 77  1  0
 28 78  1  0
 28 79  1  0
 30 80  1  0
 30 81  1  0
 31 82  1  0
 31 83  1  0
 33 84  1  0
 33 85  1  0
 33 86  1  0
 34 87  1  0
 34 88  1  0
 35 89  1  0
 35 90  1  0
 36 91  1  0
 37 92  1  0
 37 93  1  0
 37 94  1  0
M  END
$$$$
SRC-ABL TYROSINE KINASE ANCESTOR
     RDKit          3D

 94 98  0  0  0  0  0  0  0  0999 V2000
   -0.8719    4.3255    2.2503 C   0  0  0  0  0  0  0  0  0  0  0  0
   -0.3623    2.9354    2.3906 C   0  0  0  0  0  0  0  0  0  0  0  0
   -0.9712    2.2159    3.5755 C   0  0  1  0  0  0  0  0  0  0  0  0
   -0.7809    3.0941    4.7642 C   0  0  0  0  0  0  0  0  0  0  0  0
   -1.3934    4.3848    4.6854 N   0  0  0  0  0  0  0  0  0  0  0  0
   -1.5880    4.9181    3.3973 C   0  0  0  0  0  0  0  0  0  0  0  0
   -2.3663    1.7672    3.3237 C   0  0  0  0  0  0  0  0  0  0  0  0
   -3.0063    1.0795    4.4942 C   0  0  0  0  0  0  0  0  0  0  0  0
   -4.2860    0.3774    4.2120 C   0  0  0  0  0  0  0  0  0  0  0  0
   -4.6364    0.6294    2.8274 N   0  0  0  0  0  0  0  0  0  0  0  0
   -3.5006    0.0569    2.0575 C   0  0  0  0  0  0  0  0  0  0  0  0
   -2.3823    0.9715    2.1164 N   0  0  0  0  0  0  0  0  0  0  0  0
   -3.9099   -0.0993    0.7090 N   0  0  0  0  0  0  0  0  0  0  0  0
   -3.0286   -0.6281   -0.2611 C   0  0  1  0  0  0  0  0  0  0  0  0
   -2.7312   -2.0901   -0.1631 C   0  0  1  0  0  0  0  0  0  0  0  0
   -1.7689   -2.4457   -1.3102 C   0  0  0  0  0  0  0  0  0  0  0  0
   -2.4950   -2.2742   -2.6220 C   0  0  0  0  0  0  0  0  0  0  0  0
   -2.7724   -0.7614   -2.7644 C   0  0  0  0  0  0  0  0  0  0  0  0
   -3.6842   -0.4210   -1.6471 C   0  0  0  0  0  0  0  0  0  0  0  0
   -1.4983   -0.1246   -2.7711 N   0  0  0  0  0  0  0  0  0  0  0  0
   -1.4929    1.2818   -3.0024 C   0  0  0  0  0  0  0  0  0  0  0  0
   -0.0632    1.7802   -2.9536 C   0  0  0  0  0  0  0  0  0  0  0  0
    0.8168    1.1393   -3.9748 C   0  0  0  0  0  0  0  0  0  0  0  0
    1.8156    0.1965   -3.2721 C   0  0  0  0  0  0  0  0  0  0  0  0
    2.7071    1.0940   -2.4668 C   0  0  0  0  0  0  0  0  0  0  0  0
    1.9103    1.8697   -1.4198 C   0  0  0  0  0  0  0  0  0  0  0  0
    0.4554    1.5496   -1.5599 C   0  0  0  0  0  0  0  0  0  0  0  0
    3.9070    0.4536   -1.8534 C   0  0  0  0  0  0  0  0  0  0  0  0
    3.6934   -0.6016   -0.9325 N   0  0  0  0  0  0  0  0  0  0  0  0
    3.1976   -1.8272   -1.4514 C   0  0  0  0  0  0  0  0  0  0  0  0
    4.0453   -3.0118   -0.9698 C   0  0  0  0  0  0  0  0  0  0  0  0
    5.4128   -2.8640   -1.3938 N   0  0  0  0  0  0  0  0  0  0  0  0
    5.5457   -3.1834   -2.7866 C   0  0  0  0  0  0  0  0  0  0  0  0
    5.9160   -1.5651   -1.0571 C   0  0  0  0  0  0  0  0  0  0  0  0
    4.9145   -0.8376   -0.1867 C   0  0  0  0  0  0  0  0  0  0  0  0
   -2.2061    2.0035   -2.0533 O   0  0  0  0  0  0  0  0  0  0  0  0
   -2.1821   -2.5988    1.1234 C   0  0  0  0  0  0  0  0  0  0  0  0
   -0.0108    4.9619    1.8876 H   0  0  0  0  0  0  0  0  0  0  0  0
   -1.5793    4.3428    1.3680 H   0  0  0  0  0  0  0  0  0  0  0  0
    0.7348    2.9486    2.5701 H   0  0  0  0  0  0  0  0  0  0  0  0
   -0.5436    2.3387    1.4657 H   0  0  0  0  0  0  0  0  0  0  0  0
   -0.2918    1.3239    3.7478 H   0  0  0  0  0  0  0  0  0  0  0  0
   -1.0575    2.5393    5.6953 H   0  0  0  0  0  0  0  0  0  0  0  0
    0.3144    3.2661    4.8504 H   0  0  0  0  0  0  0  0  0  0  0  0
   -0.9605    5.0335    5.3793 H   0  0  0  0  0  0  0  0  0  0  0  0
   -1.2540    5.9992    3.4542 H   0  0  0  0  0  0  0  0  0  0  0  0
   -2.7006    5.0390    3.2331 H   0  0  0  0  0  0  0  0  0  0  0  0
   -2.9784    2.6618    3.0949 H   0  0  0  0  0  0  0  0  0  0  0  0
   -3.1897    1.8270    5.3012 H   0  0  0  0  0  0  0  0  0  0  0  0
   -2.2983    0.3561    4.9572 H   0  0  0  0  0  0  0  0  0  0  0  0
   -4.1492   -0.7345    4.3058 H   0  0  0  0  0  0  0  0  0  0  0  0
   -5.0822    0.7280    4.8972 H   0  0  0  0  0  0  0  0  0  0  0  0
   -4.6988    1.6546    2.6865 H   0  0  0  0  0  0  0  0  0  0  0  0
   -3.2833   -0.8777    2.5956 H   0  0  0  0  0  0  0  0  0  0  0  0
   -1.5156    0.4070    2.0097 H   0  0  0  0  0  0  0  0  0  0  0  0
   -4.5134    0.6580    0.3533 H   0  0  0  0  0  0  0  0  0  0  0  0
   -2.0897   -0.0104   -0.2196 H   0  0  0  0  0  0  0  0  0  0  0  0
   -3.6957   -2.6133   -0.4408 H   0  0  0  0  0  0  0  0  0  0  0  0
   -0.9196   -1.7120   -1.3409 H   0  0  0  0  0  0  0  0  0  0  0  0
   -1.4126   -3.4779   -1.1939 H   0  0  0  0  0  0  0  0  0  0  0  0
   -1.9029   -2.6610   -3.4523 H   0  0  0  0  0  0  0  0  0  0  0  0
   -3.4477   -2.8270   -2.5266 H   0  0  0  0  0  0  0  0  0  0  0  0
   -3.3309   -0.6763   -3.7069 H   0  0  0  0  0  0  0  0  0  0  0  0
   -4.5014   -1.2009   -1.6498 H   0  0  0  0  0  0  0  0  0  0  0  0
   -4.2078    0.5354   -1.7101 H   0  0  0  0  0  0  0  0  0  0  0  0
   -0.9498   -0.5638   -3.5643 H   0  0  0  0  0  0  0  0  0  0  0  0
   -1.9235    1.5579   -3.9894 H   0  0  0  0  0  0  0  0  0  0  0  0
   -0.1235    2.8903   -3.1295 H   0  0  0  0  0  0  0  0  0  0  0  0
    0.3105    0.6660   -4.8149 H   0  0  0  0  0  0  0  0  0  0  0  0
    1.4745    1.9476   -4.4084 H   0  0  0  0  0  0  0  0  0  0  0  0
    1.2776   -0.5447   -2.6704 H   0  0  0  0  0  0  0  0  0  0  0  0
    2.4407   -0.2506   -4.0805 H   0  0  0  0  0  0  0  0  0  0  0  0
    3.1085    1.8697   -3.1831 H   0  0  0  0  0  0  0  0  0  0  0  0
    2.2254    1.6019   -0.3864 H   0  0  0  0  0  0  0  0  0  0  0  0
    2.0170    2.9643   -1.5461 H   0  0  0  0  0  0  0  0  0  0  0  0
   -0.0969    2.2563   -0.8789 H   0  0  0  0  0  0  0  0  0  0  0  0
    0.2503    0.5060   -1.2600 H   0  0  0  0  0  0  0  0  0  0  0  0
    4.5029    1.2741   -1.3439 H   0  0  0  0  0  0  0  0  0  0  0  0
    4.5710    0.1388   -2.7022 H   0  0  0  0  0  0  0  0  0  0  0  0
    3.2682   -1.8482   -2.5371 H   0  0  0  0  0  0  0  0  0  0  0  0
    2.1671   -2.0809   -1.1206 H   0  0  0  0  0  0  0  0  0  0  0  0
    3.6294   -3.9056   -1.5057 H   0  0  0  0  0  0  0  0  0  0  0  0
    3.9339   -3.1463    0.1226 H   0  0  0  0  0  0  0  0  0  0  0  0
    6.5728   -3.4465   -3.0686 H   0  0  0  0  0  0  0  0  0  0  0  0
    5.1109   -2.3880   -3.4351 H   0  0  0  0  0  0  0  0  0  0  0  0
    4.9374   -4.1091   -2.9725 H   0  0  0  0  0  0  0  0  0  0  0  0
    6.8611   -1.6799   -0.4596 H   0  0  0  0  0  0  0  0  0  0  0  0
    6.1130   -0.9661   -1.9505 H   0  0  0  0  0  0  0  0  0  0  0  0
    5.3566    0.1513    0.0558 H   0  0  0  0  0  0  0  0  0  0  0  0
    4.7320   -1.3839    0.7671 H   0  0  0  0  0  0  0  0  0  0  0  0
   -2.5778    2.8421   -2.4139 H   0  0  0  0  0  0  0  0  0  0  0  0
   -1.5627   -3.5238    0.8257 H   0  0  0  0  0  0  0  0  0  0  0  0
   -1.4753   -1.9467    1.6266 H   0  0  0  0  0  0  0  0  0  0  0  0
   -2.9020   -3.0090    1.8373 H   0  0  0  0  0  0  0  0  0  0  0  0
  1  2  1  0
  1  6  1  0
  2  3  1  0
  3  4  1  0
  3  7  1  0
  4  5  1  0
  5  6  1  0
  7  8  1  0
  7 12  1  0
  8  9  1  0
  9 10  1  0
 10 11  1  0
 11 12  1  0
 11 13  1  0
 13 14  1  0
 14 15  1  0
 14 19  1  0
 15 16  1  0
 15 37  1  0
 16 17  1  0
 17 18  1  0
 18 19  1  0
 18 20  1  0
 20 21  1  0
 21 22  1  0
 21 36  1  0
 22 23  1  0
 22 27  1  0
 23 24  1  0
 24 25  1  0
 25 26  1  0
 25 28  1  0
 26 27  1  0
 28 29  1  0
 29 30  1  0
 29 35  1  0
 30 31  1  0
 31 32  1  0
 32 33  1  0
 32 34  1  0
 34 35  1  0
  1 38  1  0
  1 39  1  0
  2 40  1  0
  2 41  1  0
  3 42  1  1
  4 43  1  0
  4 44  1  0
  5 45  1  0
  6 46  1  0
  6 47  1  0
  7 48  1  0
  8 49  1  0
  8 50  1  0
  9 51  1  0
  9 52  1  0
 10 53  1  0
 11 54  1  0
 12 55  1  0
 13 56  1  0
 14 57  1  6
 15 58  1  6
 16 59  1  0
 16 60  1  0
 17 61  1  0
 17 62  1  0
 18 63  1  0
 19 64  1  0
 19 65  1  0
 20 66  1  0
 21 67  1  0
 22 68  1  0
 23 69  1  0
 23 70  1  0
 24 71  1  0
 24 72  1  0
 25 73  1  0
 26 74  1  0
 26 75  1  0
 27 76  1  0
 27 77  1  0
 28 78  1  0
 28 79  1  0
 30 80  1  0
 30 81  1  0
 31 82  1  0
 31 83  1  0
 33 84  1  0
 33 85  1  0
 33 86  1  0
 34 87  1  0
 34 88  1  0
 35 89  1  0
 35 90  1  0
 36 91  1  0
 37 92  1  0
 37 93  1  0
 37 94  1  0
M  END
$$$$
SRC-ABL TYROSINE KINASE ANCESTOR
     RDKit          3D

 94 98  0  0  0  0  0  0  0  0999 V2000
    2.3555    5.3066    0.6253 C   0  0  0  0  0  0  0  0  0  0  0  0
    3.4894    4.6489   -0.0938 C   0  0  0  0  0  0  0  0  0  0  0  0
    3.7770    3.2792    0.4258 C   0  0  1  0  0  0  0  0  0  0  0  0
    4.0443    3.4341    1.9290 C   0  0  0  0  0  0  0  0  0  0  0  0
    2.9230    4.0725    2.5819 N   0  0  0  0  0  0  0  0  0  0  0  0
    2.7282    5.4287    2.0937 C   0  0  0  0  0  0  0  0  0  0  0  0
    2.6388    2.3102    0.2720 C   0  0  0  0  0  0  0  0  0  0  0  0
    2.2344    2.1209   -1.1574 C   0  0  0  0  0  0  0  0  0  0  0  0
    0.9744    1.2874   -1.2455 C   0  0  0  0  0  0  0  0  0  0  0  0
    0.9487    0.4715   -0.0147 N   0  0  0  0  0  0  0  0  0  0  0  0
    2.2819    0.0012    0.1815 C   0  0  0  0  0  0  0  0  0  0  0  0
    3.0898    1.0289    0.8313 N   0  0  0  0  0  0  0  0  0  0  0  0
    2.4396   -1.2798    0.7758 N   0  0  0  0  0  0  0  0  0  0  0  0
    1.8004   -2.3294    0.0598 C   0  0  1  0  0  0  0  0  0  0  0  0
    2.4680   -3.6868    0.3478 C   0  0  1  0  0  0  0  0  0  0  0  0
    1.9861   -4.2144    1.6432 C   0  0  0  0  0  0  0  0  0  0  0  0
    0.4867   -4.4124    1.5597 C   0  0  0  0  0  0  0  0  0  0  0  0
   -0.1823   -3.0043    1.5047 C   0  0  0  0  0  0  0  0  0  0  0  0
    0.3141   -2.4274    0.2186 C   0  0  0  0  0  0  0  0  0  0  0  0
    0.1348   -2.3970    2.7095 N   0  0  0  0  0  0  0  0  0  0  0  0
   -0.3076   -1.1461    3.1255 C   0  0  0  0  0  0  0  0  0  0  0  0
   -1.7919   -0.9612    3.3324 C   0  0  0  0  0  0  0  0  0  0  0  0
   -2.6626   -1.1784    2.1643 C   0  0  0  0  0  0  0  0  0  0  0  0
   -3.8437   -0.1976    2.1259 C   0  0  0  0  0  0  0  0  0  0  0  0
   -3.3510    1.2078    1.8585 C   0  0  0  0  0  0  0  0  0  0  0  0
   -2.2636    1.4766    2.8688 C   0  0  0  0  0  0  0  0  0  0  0  0
   -2.0918    0.4068    3.8974 C   0  0  0  0  0  0  0  0  0  0  0  0
   -2.7163    1.3395    0.5028 C   0  0  0  0  0  0  0  0  0  0  0  0
   -3.5530    1.0353   -0.6052 N   0  0  0  0  0  0  0  0  0  0  0  0
   -4.6254    1.9291   -0.8737 C   0  0  0  0  0  0  0  0  0  0  0  0
   -4.3453    2.9081   -1.9857 C   0  0  0  0  0  0  0  0  0  0  0  0
   -2.9432    2.8876   -2.3911 N   0  0  0  0  0  0  0  0  0  0  0  0
   -2.8094    3.7519   -3.5485 C   0  0  0  0  0  0  0  0  0  0  0  0
   -2.7103    1.5164   -2.8657 C   0  0  0  0  0  0  0  0  0  0  0  0
   -2.8021    0.5586   -1.7048 C   0  0  0  0  0  0  0  0  0  0  0  0
    0.2184   -0.9722    4.4447 O   0  0  0  0  0  0  0  0  0  0  0  0
    2.3008   -4.6250   -0.8101 C   0  0  0  0  0  0  0  0  0  0  0  0
    1.4188    4.7317    0.5701 H   0  0  0  0  0  0  0  0  0  0  0  0
    2.1359    6.2994    0.1812 H   0  0  0  0  0  0  0  0  0  0  0  0
    4.4124    5.2600    0.0977 H   0  0  0  0  0  0  0  0  0  0  0  0
    3.3807    4.6628   -1.2006 H   0  0  0  0  0  0  0  0  0  0  0  0
    4.7370    2.9146    0.0056 H   0  0  0  0  0  0  0  0  0  0  0  0
    4.9513    4.0897    2.0745 H   0  0  0  0  0  0  0  0  0  0  0  0
    4.1778    2.4448    2.3986 H   0  0  0  0  0  0  0  0  0  0  0  0
    3.0576    4.0151    3.5960 H   0  0  0  0  0  0  0  0  0  0  0  0
    1.8454    5.8398    2.6207 H   0  0  0  0  0  0  0  0  0  0  0  0
    3.6239    6.0529    2.1864 H   0  0  0  0  0  0  0  0  0  0  0  0
    1.7901    2.7253    0.8478 H   0  0  0  0  0  0  0  0  0  0  0  0
    3.0596    1.6933   -1.7638 H   0  0  0  0  0  0  0  0  0  0  0  0
    1.9879    3.0880   -1.6357 H   0  0  0  0  0  0  0  0  0  0  0  0
    0.0732    1.8826   -1.3699 H   0  0  0  0  0  0  0  0  0  0  0  0
    1.1255    0.5768   -2.0820 H   0  0  0  0  0  0  0  0  0  0  0  0
    0.6133    1.0897    0.7674 H   0  0  0  0  0  0  0  0  0  0  0  0
    2.7575   -0.0893   -0.8497 H   0  0  0  0  0  0  0  0  0  0  0  0
    2.8107    1.0314    1.8396 H   0  0  0  0  0  0  0  0  0  0  0  0
    3.4522   -1.4577    0.9270 H   0  0  0  0  0  0  0  0  0  0  0  0
    1.9795   -2.1732   -1.0400 H   0  0  0  0  0  0  0  0  0  0  0  0
    3.5613   -3.4399    0.4387 H   0  0  0  0  0  0  0  0  0  0  0  0
    2.4154   -5.1963    1.8584 H   0  0  0  0  0  0  0  0  0  0  0  0
    2.2070   -3.5107    2.4503 H   0  0  0  0  0  0  0  0  0  0  0  0
    0.1418   -4.8451    2.5160 H   0  0  0  0  0  0  0  0  0  0  0  0
    0.1993   -4.9996    0.6870 H   0  0  0  0  0  0  0  0  0  0  0  0
   -1.2464   -3.2791    1.3606 H   0  0  0  0  0  0  0  0  0  0  0  0
   -0.1668   -1.5280   -0.1396 H   0  0  0  0  0  0  0  0  0  0  0  0
    0.0142   -3.2098   -0.5593 H   0  0  0  0  0  0  0  0  0  0  0  0
   -0.0647   -3.0936    3.4883 H   0  0  0  0  0  0  0  0  0  0  0  0
    0.1246   -0.2679    2.6031 H   0  0  0  0  0  0  0  0  0  0  0  0
   -2.0551   -1.6831    4.1625 H   0  0  0  0  0  0  0  0  0  0  0  0
   -3.1490   -2.1758    2.2445 H   0  0  0  0  0  0  0  0  0  0  0  0
   -2.2057   -1.1021    1.1818 H   0  0  0  0  0  0  0  0  0  0  0  0
   -4.3090   -0.1984    3.1283 H   0  0  0  0  0  0  0  0  0  0  0  0
   -4.5551   -0.5800    1.3900 H   0  0  0  0  0  0  0  0  0  0  0  0
   -4.2010    1.8865    1.9999 H   0  0  0  0  0  0  0  0  0  0  0  0
   -1.2814    1.7005    2.4086 H   0  0  0  0  0  0  0  0  0  0  0  0
   -2.5294    2.4113    3.4383 H   0  0  0  0  0  0  0  0  0  0  0  0
   -1.2104    0.7054    4.5154 H   0  0  0  0  0  0  0  0  0  0  0  0
   -2.9520    0.3354    4.5900 H   0  0  0  0  0  0  0  0  0  0  0  0
   -2.4092    2.4196    0.3817 H   0  0  0  0  0  0  0  0  0  0  0  0
   -1.7943    0.7345    0.4110 H   0  0  0  0  0  0  0  0  0  0  0  0
   -4.8427    2.5253    0.0370 H   0  0  0  0  0  0  0  0  0  0  0  0
   -5.5683    1.3617   -1.0975 H   0  0  0  0  0  0  0  0  0  0  0  0
   -4.5867    3.9532   -1.7401 H   0  0  0  0  0  0  0  0  0  0  0  0
   -4.9384    2.6153   -2.8755 H   0  0  0  0  0  0  0  0  0  0  0  0
   -3.0963    3.2342   -4.5013 H   0  0  0  0  0  0  0  0  0  0  0  0
   -3.4948    4.6382   -3.5133 H   0  0  0  0  0  0  0  0  0  0  0  0
   -1.7890    4.1761   -3.6395 H   0  0  0  0  0  0  0  0  0  0  0  0
   -3.4404    1.2241   -3.6386 H   0  0  0  0  0  0  0  0  0  0  0  0
   -1.6970    1.4712   -3.3395 H   0  0  0  0  0  0  0  0  0  0  0  0
   -1.7578    0.3301   -1.3967 H   0  0  0  0  0  0  0  0  0  0  0  0
   -3.1876   -0.4142   -2.1156 H   0  0  0  0  0  0  0  0  0  0  0  0
   -0.1044   -1.7508    4.9593 H   0  0  0  0  0  0  0  0  0  0  0  0
    1.6324   -4.2591   -1.6128 H   0  0  0  0  0  0  0  0  0  0  0  0
    3.2798   -4.8158   -1.3413 H   0  0  0  0  0  0  0  0  0  0  0  0
    1.9583   -5.6262   -0.4550 H   0  0  0  0  0  0  0  0  0  0  0  0
  1  2  1  0
  1  6  1  0
  2  3  1  0
  3  4  1  0
  3  7  1  0
  4  5  1  0
  5  6  1  0
  7  8  1  0
  7 12  1  0
  8  9  1  0
  9 10  1  0
 10 11  1  0
 11 12  1  0
 11 13  1  0
 13 14  1  0
 14 15  1  0
 14 19  1  0
 15 16  1  0
 15 37  1  0
 16 17  1  0
 17 18  1  0
 18 19  1  0
 18 20  1  0
 20 21  1  0
 21 22  1  0
 21 36  1  0
 22 23  1  0
 22 27  1  0
 23 24  1  0
 24 25  1  0
 25 26  1  0
 25 28  1  0
 26 27  1  0
 28 29  1  0
 29 30  1  0
 29 35  1  0
 30 31  1  0
 31 32  1  0
 32 33  1  0
 32 34  1  0
 34 35  1  0
  1 38  1  0
  1 39  1  0
  2 40  1  0
  2 41  1  0
  3 42  1  6
  4 43  1  0
  4 44  1  0
  5 45  1  0
  6 46  1  0
  6 47  1  0
  7 48  1  0
  8 49  1  0
  8 50  1  0
  9 51  1  0
  9 52  1  0
 10 53  1  0
 11 54  1  0
 12 55  1  0
 13 56  1  0
 14 57  1  6
 15 58  1  1
 16 59  1  0
 16 60  1  0
 17 61  1  0
 17 62  1  0
 18 63  1  0
 19 64  1  0
 19 65  1  0
 20 66  1  0
 21 67  1  0
 22 68  1  0
 23 69  1  0
 23 70  1  0
 24 71  1  0
 24 72  1  0
 25 73  1  0
 26 74  1  0
 26 75  1  0
 27 76  1  0
 27 77  1  0
 28 78  1  0
 28 79  1  0
 30 80  1  0
 30 81  1  0
 31 82  1  0
 31 83  1  0
 33 84  1  0
 33 85  1  0
 33 86  1  0
 34 87  1  0
 34 88  1  0
 35 89  1  0
 35 90  1  0
 36 91  1  0
 37 92  1  0
 37 93  1  0
 37 94  1  0
M  END
$$$$
SRC-ABL TYROSINE KINASE ANCESTOR
     RDKit          3D

 94 98  0  0  0  0  0  0  0  0999 V2000
   -5.4085   -1.6311   -5.4320 C   0  0  0  0  0  0  0  0  0  0  0  0
   -4.0144   -2.1879   -5.1749 C   0  0  0  0  0  0  0  0  0  0  0  0
   -3.2256   -1.1504   -4.3961 C   0  0  1  0  0  0  0  0  0  0  0  0
   -3.8539   -0.8433   -3.0783 C   0  0  0  0  0  0  0  0  0  0  0  0
   -5.2446   -0.5529   -3.2669 N   0  0  0  0  0  0  0  0  0  0  0  0
   -5.6330   -0.3469   -4.6419 C   0  0  0  0  0  0  0  0  0  0  0  0
   -1.7767   -1.5067   -4.3471 C   0  0  0  0  0  0  0  0  0  0  0  0
   -1.5351   -2.8469   -3.6923 C   0  0  0  0  0  0  0  0  0  0  0  0
   -0.1018   -3.0796   -3.3691 C   0  0  0  0  0  0  0  0  0  0  0  0
    0.5696   -1.9604   -2.7333 N   0  0  0  0  0  0  0  0  0  0  0  0
    0.2938   -0.8011   -3.5634 C   0  0  0  0  0  0  0  0  0  0  0  0
   -1.1037   -0.5288   -3.4663 N   0  0  0  0  0  0  0  0  0  0  0  0
    1.1970    0.2644   -3.3966 N   0  0  0  0  0  0  0  0  0  0  0  0
    1.3649    0.8511   -2.1240 C   0  0  1  0  0  0  0  0  0  0  0  0
    2.4951    1.8868   -2.2607 C   0  0  1  0  0  0  0  0  0  0  0  0
    1.9956    3.3006   -2.0762 C   0  0  0  0  0  0  0  0  0  0  0  0
    1.3446    3.5556   -0.7496 C   0  0  0  0  0  0  0  0  0  0  0  0
    0.6881    2.2500   -0.2789 C   0  0  0  0  0  0  0  0  0  0  0  0
    0.1891    1.6349   -1.5962 C   0  0  0  0  0  0  0  0  0  0  0  0
   -0.3584    2.4845    0.6397 N   0  0  0  0  0  0  0  0  0  0  0  0
   -0.7785    1.3007    1.3188 C   0  0  0  0  0  0  0  0  0  0  0  0
   -1.8297    1.5905    2.3770 C   0  0  0  0  0  0  0  0  0  0  0  0
   -1.3333    2.5193    3.4329 C   0  0  0  0  0  0  0  0  0  0  0  0
   -0.1891    1.8903    4.2376 C   0  0  0  0  0  0  0  0  0  0  0  0
   -0.7161    0.5848    4.8071 C   0  0  0  0  0  0  0  0  0  0  0  0
   -1.1413   -0.3784    3.7564 C   0  0  0  0  0  0  0  0  0  0  0  0
   -2.2820    0.2919    2.9691 C   0  0  0  0  0  0  0  0  0  0  0  0
    0.2109    0.0869    5.8537 C   0  0  0  0  0  0  0  0  0  0  0  0
    1.5598   -0.1827    5.4865 N   0  0  0  0  0  0  0  0  0  0  0  0
    1.7051   -1.3232    4.6616 C   0  0  0  0  0  0  0  0  0  0  0  0
    2.8540   -2.2283    5.1010 C   0  0  0  0  0  0  0  0  0  0  0  0
    4.0636   -1.4642    5.3162 N   0  0  0  0  0  0  0  0  0  0  0  0
    4.5353   -0.8610    4.0791 C   0  0  0  0  0  0  0  0  0  0  0  0
    3.8518   -0.4480    6.3313 C   0  0  0  0  0  0  0  0  0  0  0  0
    2.3834   -0.2884    6.6594 C   0  0  0  0  0  0  0  0  0  0  0  0
   -1.2836    0.2886    0.5390 O   0  0  0  0  0  0  0  0  0  0  0  0
    3.6043    1.5971   -1.2882 C   0  0  0  0  0  0  0  0  0  0  0  0
   -5.6344   -1.4867   -6.4899 H   0  0  0  0  0  0  0  0  0  0  0  0
   -6.1527   -2.3567   -5.0125 H   0  0  0  0  0  0  0  0  0  0  0  0
   -3.4954   -2.4056   -6.1262 H   0  0  0  0  0  0  0  0  0  0  0  0
   -4.0785   -3.1623   -4.6343 H   0  0  0  0  0  0  0  0  0  0  0  0
   -3.3213   -0.2044   -5.0092 H   0  0  0  0  0  0  0  0  0  0  0  0
   -3.2893    0.0235   -2.6473 H   0  0  0  0  0  0  0  0  0  0  0  0
   -3.7333   -1.7255   -2.4056 H   0  0  0  0  0  0  0  0  0  0  0  0
   -5.6460    0.1695   -2.6568 H   0  0  0  0  0  0  0  0  0  0  0  0
   -5.2146    0.5433   -5.1177 H   0  0  0  0  0  0  0  0  0  0  0  0
   -6.7350   -0.2034   -4.6394 H   0  0  0  0  0  0  0  0  0  0  0  0
   -1.3360   -1.4463   -5.3408 H   0  0  0  0  0  0  0  0  0  0  0  0
   -1.8226   -3.6155   -4.4524 H   0  0  0  0  0  0  0  0  0  0  0  0
   -2.1395   -2.9383   -2.7845 H   0  0  0  0  0  0  0  0  0  0  0  0
    0.4859   -3.3781   -4.2797 H   0  0  0  0  0  0  0  0  0  0  0  0
   -0.0278   -3.9670   -2.6942 H   0  0  0  0  0  0  0  0  0  0  0  0
    1.5714   -2.1808   -2.6781 H   0  0  0  0  0  0  0  0  0  0  0  0
    0.4742   -1.1882   -4.6193 H   0  0  0  0  0  0  0  0  0  0  0  0
   -1.4412   -0.8451   -2.5040 H   0  0  0  0  0  0  0  0  0  0  0  0
    2.1014    0.0348   -3.8601 H   0  0  0  0  0  0  0  0  0  0  0  0
    1.6946    0.1139   -1.3496 H   0  0  0  0  0  0  0  0  0  0  0  0
    2.9558    1.8639   -3.2703 H   0  0  0  0  0  0  0  0  0  0  0  0
    1.4282    3.6889   -2.9496 H   0  0  0  0  0  0  0  0  0  0  0  0
    2.9353    3.9306   -2.0720 H   0  0  0  0  0  0  0  0  0  0  0  0
    2.0728    3.8665    0.0141 H   0  0  0  0  0  0  0  0  0  0  0  0
    0.5569    4.3222   -0.8719 H   0  0  0  0  0  0  0  0  0  0  0  0
    1.4756    1.6281    0.1533 H   0  0  0  0  0  0  0  0  0  0  0  0
   -0.7165    1.1039   -1.4082 H   0  0  0  0  0  0  0  0  0  0  0  0
   -0.0516    2.4391   -2.3334 H   0  0  0  0  0  0  0  0  0  0  0  0
   -0.2958    3.3206    1.2319 H   0  0  0  0  0  0  0  0  0  0  0  0
    0.0970    0.8477    1.8704 H   0  0  0  0  0  0  0  0  0  0  0  0
   -2.6954    2.0621    1.8949 H   0  0  0  0  0  0  0  0  0  0  0  0
   -2.1717    2.5985    4.1873 H   0  0  0  0  0  0  0  0  0  0  0  0
   -1.0898    3.5229    3.0886 H   0  0  0  0  0  0  0  0  0  0  0  0
   -0.0115    2.5632    5.1083 H   0  0  0  0  0  0  0  0  0  0  0  0
    0.6803    1.7527    3.5985 H   0  0  0  0  0  0  0  0  0  0  0  0
   -1.7071    0.9210    5.3000 H   0  0  0  0  0  0  0  0  0  0  0  0
   -1.5719   -1.2658    4.2238 H   0  0  0  0  0  0  0  0  0  0  0  0
   -0.3562   -0.7031    3.0649 H   0  0  0  0  0  0  0  0  0  0  0  0
   -2.5703   -0.3632    2.1208 H   0  0  0  0  0  0  0  0  0  0  0  0
   -3.0941    0.4714    3.6811 H   0  0  0  0  0  0  0  0  0  0  0  0
   -0.2577   -0.8292    6.3530 H   0  0  0  0  0  0  0  0  0  0  0  0
    0.1637    0.8406    6.7114 H   0  0  0  0  0  0  0  0  0  0  0  0
    1.8723   -1.0133    3.5941 H   0  0  0  0  0  0  0  0  0  0  0  0
    0.7824   -1.9259    4.6812 H   0  0  0  0  0  0  0  0  0  0  0  0
    3.0203   -2.9731    4.3177 H   0  0  0  0  0  0  0  0  0  0  0  0
    2.5936   -2.7316    6.0461 H   0  0  0  0  0  0  0  0  0  0  0  0
    5.6329   -0.7231    4.0873 H   0  0  0  0  0  0  0  0  0  0  0  0
    4.2574   -1.5278    3.2619 H   0  0  0  0  0  0  0  0  0  0  0  0
    4.0314    0.1134    3.8862 H   0  0  0  0  0  0  0  0  0  0  0  0
    4.2566    0.5045    5.9360 H   0  0  0  0  0  0  0  0  0  0  0  0
    4.4369   -0.7421    7.2251 H   0  0  0  0  0  0  0  0  0  0  0  0
    2.0673   -1.1754    7.2324 H   0  0  0  0  0  0  0  0  0  0  0  0
    2.2772    0.6473    7.2554 H   0  0  0  0  0  0  0  0  0  0  0  0
   -0.7037   -0.5263    0.5156 H   0  0  0  0  0  0  0  0  0  0  0  0
    4.6127    1.5562   -1.7636 H   0  0  0  0  0  0  0  0  0  0  0  0
    3.4972    0.6076   -0.7857 H   0  0  0  0  0  0  0  0  0  0  0  0
    3.6671    2.4166   -0.5296 H   0  0  0  0  0  0  0  0  0  0  0  0
  1  2  1  0
  1  6  1  0
  2  3  1  0
  3  4  1  0
  3  7  1  0
  4  5  1  0
  5  6  1  0
  7  8  1  0
  7 12  1  0
  8  9  1  0
  9 10  1  0
 10 11  1  0
 11 12  1  0
 11 13  1  0
 13 14  1  0
 14 15  1  0
 14 19  1  0
 15 16  1  0
 15 37  1  0
 16 17  1  0
 17 18  1  0
 18 19  1  0
 18 20  1  0
 20 21  1  0
 21 22  1  0
 21 36  1  0
 22 23  1  0
 22 27  1  0
 23 24  1  0
 24 25  1  0
 25 26  1  0
 25 28  1  0
 26 27  1  0
 28 29  1  0
 29 30  1  0
 29 35  1  0
 30 31  1  0
 31 32  1  0
 32 33  1  0
 32 34  1  0
 34 35  1  0
  1 38  1  0
  1 39  1  0
  2 40  1  0
  2 41  1  0
  3 42  1  6
  4 43  1  0
  4 44  1  0
  5 45  1  0
  6 46  1  0
  6 47  1  0
  7 48  1  0
  8 49  1  0
  8 50  1  0
  9 51  1  0
  9 52  1  0
 10 53  1  0
 11 54  1  0
 12 55  1  0
 13 56  1  0
 14 57  1  1
 15 58  1  6
 16 59  1  0
 16 60  1  0
 17 61  1  0
 17 62  1  0
 18 63  1  0
 19 64  1  0
 19 65  1  0
 20 66  1  0
 21 67  1  0
 22 68  1  0
 23 69  1  0
 23 70  1  0
 24 71  1  0
 24 72  1  0
 25 73  1  0
 26 74  1  0
 26 75  1  0
 27 76  1  0
 27 77  1  0
 28 78  1  0
 28 79  1  0
 30 80  1  0
 30 81  1  0
 31 82  1  0
 31 83  1  0
 33 84  1  0
 33 85  1  0
 33 86  1  0
 34 87  1  0
 34 88  1  0
 35 89  1  0
 35 90  1  0
 36 91  1  0
 37 92  1  0
 37 93  1  0
 37 94  1  0
M  END
$$$$
SRC-ABL TYROSINE KINASE ANCESTOR
     RDKit          3D

 94 98  0  0  0  0  0  0  0  0999 V2000
    3.2052   -2.3478    0.2928 C   0  0  0  0  0  0  0  0  0  0  0  0
    3.2148   -0.9437   -0.2699 C   0  0  0  0  0  0  0  0  0  0  0  0
    4.6051   -0.3729   -0.0955 C   0  0  1  0  0  0  0  0  0  0  0  0
    5.5727   -1.3181   -0.7513 C   0  0  0  0  0  0  0  0  0  0  0  0
    5.6211   -2.5997   -0.0712 N   0  0  0  0  0  0  0  0  0  0  0  0
    4.5504   -2.7427    0.8794 C   0  0  0  0  0  0  0  0  0  0  0  0
    4.7269    1.0077   -0.6809 C   0  0  0  0  0  0  0  0  0  0  0  0
    4.4379    1.0548   -2.1551 C   0  0  0  0  0  0  0  0  0  0  0  0
    4.9714    2.3964   -2.6657 C   0  0  0  0  0  0  0  0  0  0  0  0
    4.9462    3.3673   -1.5871 N   0  0  0  0  0  0  0  0  0  0  0  0
    3.7826    3.1893   -0.7387 C   0  0  0  0  0  0  0  0  0  0  0  0
    3.8308    1.9364   -0.0170 N   0  0  0  0  0  0  0  0  0  0  0  0
    2.6271    3.2641   -1.6097 N   0  0  0  0  0  0  0  0  0  0  0  0
    1.3846    3.1130   -0.8934 C   0  0  1  0  0  0  0  0  0  0  0  0
    1.1371    4.1635    0.1487 C   0  0  1  0  0  0  0  0  0  0  0  0
   -0.2054    4.8038    0.1254 C   0  0  0  0  0  0  0  0  0  0  0  0
   -1.3477    3.9891   -0.3721 C   0  0  0  0  0  0  0  0  0  0  0  0
   -0.9758    2.6398   -0.9073 C   0  0  0  0  0  0  0  0  0  0  0  0
    0.2206    2.8998   -1.8360 C   0  0  0  0  0  0  0  0  0  0  0  0
   -0.4686    1.7092    0.0808 N   0  0  0  0  0  0  0  0  0  0  0  0
   -1.4332    1.4519    1.0894 C   0  0  0  0  0  0  0  0  0  0  0  0
   -1.0266    0.5359    2.2035 C   0  0  0  0  0  0  0  0  0  0  0  0
   -2.1409    0.3421    3.2172 C   0  0  0  0  0  0  0  0  0  0  0  0
   -3.1459   -0.6891    2.7767 C   0  0  0  0  0  0  0  0  0  0  0  0
   -2.5044   -2.0172    2.4826 C   0  0  0  0  0  0  0  0  0  0  0  0
   -1.0980   -2.0156    2.0887 C   0  0  0  0  0  0  0  0  0  0  0  0
   -0.3904   -0.7366    1.8644 C   0  0  0  0  0  0  0  0  0  0  0  0
   -3.3877   -2.8132    1.5619 C   0  0  0  0  0  0  0  0  0  0  0  0
   -3.7124   -2.2718    0.3116 N   0  0  0  0  0  0  0  0  0  0  0  0
   -2.7283   -2.1434   -0.7029 C   0  0  0  0  0  0  0  0  0  0  0  0
   -2.2786   -3.4600   -1.2859 C   0  0  0  0  0  0  0  0  0  0  0  0
   -3.2734   -4.4344   -1.4718 N   0  0  0  0  0  0  0  0  0  0  0  0
   -2.7292   -5.7596   -1.1409 C   0  0  0  0  0  0  0  0  0  0  0  0
   -4.5165   -4.3046   -0.8026 C   0  0  0  0  0  0  0  0  0  0  0  0
   -4.8423   -2.9284   -0.3070 C   0  0  0  0  0  0  0  0  0  0  0  0
   -2.5891    0.9937    0.4242 O   0  0  0  0  0  0  0  0  0  0  0  0
    1.4960    3.6933    1.5468 C   0  0  0  0  0  0  0  0  0  0  0  0
    2.8761   -3.0884   -0.4599 H   0  0  0  0  0  0  0  0  0  0  0  0
    2.4514   -2.3784    1.0996 H   0  0  0  0  0  0  0  0  0  0  0  0
    2.4604   -0.3030    0.2206 H   0  0  0  0  0  0  0  0  0  0  0  0
    3.0467   -1.0286   -1.3639 H   0  0  0  0  0  0  0  0  0  0  0  0
    4.8760   -0.3092    0.9864 H   0  0  0  0  0  0  0  0  0  0  0  0
    5.2002   -1.5514   -1.7819 H   0  0  0  0  0  0  0  0  0  0  0  0
    6.5887   -0.9229   -0.8513 H   0  0  0  0  0  0  0  0  0  0  0  0
    6.5134   -2.7437    0.4473 H   0  0  0  0  0  0  0  0  0  0  0  0
    4.6982   -2.1735    1.8129 H   0  0  0  0  0  0  0  0  0  0  0  0
    4.4920   -3.7993    1.1592 H   0  0  0  0  0  0  0  0  0  0  0  0
    5.7897    1.3372   -0.5276 H   0  0  0  0  0  0  0  0  0  0  0  0
    3.3262    1.0964   -2.2947 H   0  0  0  0  0  0  0  0  0  0  0  0
    4.8652    0.2180   -2.7273 H   0  0  0  0  0  0  0  0  0  0  0  0
    4.4466    2.7290   -3.5690 H   0  0  0  0  0  0  0  0  0  0  0  0
    6.0410    2.2316   -2.9223 H   0  0  0  0  0  0  0  0  0  0  0  0
    5.8294    3.4309   -1.0647 H   0  0  0  0  0  0  0  0  0  0  0  0
    3.7718    4.0094   -0.0207 H   0  0  0  0  0  0  0  0  0  0  0  0
    4.0296    2.0375    0.9946 H   0  0  0  0  0  0  0  0  0  0  0  0
    2.6471    4.2164   -2.0378 H   0  0  0  0  0  0  0  0  0  0  0  0
    1.4803    2.1438   -0.3291 H   0  0  0  0  0  0  0  0  0  0  0  0
    1.8975    4.9705   -0.0809 H   0  0  0  0  0  0  0  0  0  0  0  0
   -0.1610    5.8123   -0.3649 H   0  0  0  0  0  0  0  0  0  0  0  0
   -0.4546    5.0701    1.1965 H   0  0  0  0  0  0  0  0  0  0  0  0
   -1.7641    4.5270   -1.2800 H   0  0  0  0  0  0  0  0  0  0  0  0
   -2.2223    3.9910    0.3130 H   0  0  0  0  0  0  0  0  0  0  0  0
   -1.7606    2.2371   -1.5550 H   0  0  0  0  0  0  0  0  0  0  0  0
    0.0342    3.8064   -2.4619 H   0  0  0  0  0  0  0  0  0  0  0  0
    0.4323    2.0114   -2.4389 H   0  0  0  0  0  0  0  0  0  0  0  0
   -0.1847    0.8759   -0.4898 H   0  0  0  0  0  0  0  0  0  0  0  0
   -1.7279    2.4317    1.5218 H   0  0  0  0  0  0  0  0  0  0  0  0
   -0.2779    1.1481    2.8029 H   0  0  0  0  0  0  0  0  0  0  0  0
   -1.6754   -0.0256    4.1526 H   0  0  0  0  0  0  0  0  0  0  0  0
   -2.6955    1.2769    3.4115 H   0  0  0  0  0  0  0  0  0  0  0  0
   -3.7330   -0.4085    1.8954 H   0  0  0  0  0  0  0  0  0  0  0  0
   -3.8791   -0.7893    3.5996 H   0  0  0  0  0  0  0  0  0  0  0  0
   -2.6049   -2.5866    3.4787 H   0  0  0  0  0  0  0  0  0  0  0  0
   -0.5193   -2.5630    2.9108 H   0  0  0  0  0  0  0  0  0  0  0  0
   -0.9147   -2.7090    1.2295 H   0  0  0  0  0  0  0  0  0  0  0  0
    0.6243   -0.8045    2.3709 H   0  0  0  0  0  0  0  0  0  0  0  0
   -0.0751   -0.6953    0.7755 H   0  0  0  0  0  0  0  0  0  0  0  0
   -4.3562   -2.9951    2.1348 H   0  0  0  0  0  0  0  0  0  0  0  0
   -2.9183   -3.8308    1.5164 H   0  0  0  0  0  0  0  0  0  0  0  0
   -3.2756   -1.6397   -1.5775 H   0  0  0  0  0  0  0  0  0  0  0  0
   -1.8841   -1.4841   -0.5249 H   0  0  0  0  0  0  0  0  0  0  0  0
   -1.8703   -3.2150   -2.3140 H   0  0  0  0  0  0  0  0  0  0  0  0
   -1.3980   -3.8816   -0.7622 H   0  0  0  0  0  0  0  0  0  0  0  0
   -2.2165   -6.1648   -2.0391 H   0  0  0  0  0  0  0  0  0  0  0  0
   -3.4764   -6.4477   -0.7421 H   0  0  0  0  0  0  0  0  0  0  0  0
   -1.9107   -5.5885   -0.3812 H   0  0  0  0  0  0  0  0  0  0  0  0
   -4.5813   -4.9761    0.0781 H   0  0  0  0  0  0  0  0  0  0  0  0
   -5.3275   -4.6113   -1.4956 H   0  0  0  0  0  0  0  0  0  0  0  0
   -5.1679   -2.2894   -1.1555 H   0  0  0  0  0  0  0  0  0  0  0  0
   -5.7114   -3.0217    0.3701 H   0  0  0  0  0  0  0  0  0  0  0  0
   -3.0170    1.7562   -0.0231 H   0  0  0  0  0  0  0  0  0  0  0  0
    1.6745    2.6145    1.6267 H   0  0  0  0  0  0  0  0  0  0  0  0
    0.6695    4.0248    2.2402 H   0  0  0  0  0  0  0  0  0  0  0  0
    2.4149    4.1725    1.9516 H   0  0  0  0  0  0  0  0  0  0  0  0
  1  2  1  0
  1  6  1  0
  2  3  1  0
  3  4  1  0
  3  7  1  0
  4  5  1  0
  5  6  1  0
  7  8  1  0
  7 12  1  0
  8  9  1  0
  9 10  1  0
 10 11  1  0
 11 12  1  0
 11 13  1  0
 13 14  1  0
 14 15  1  0
 14 19  1  0
 15 16  1  0
 15 37  1  0
 16 17  1  0
 17 18  1  0
 18 19  1  0
 18 20  1  0
 20 21  1  0
 21 22  1  0
 21 36  1  0
 22 23  1  0
 22 27  1  0
 23 24  1  0
 24 25  1  0
 25 26  1  0
 25 28  1  0
 26 27  1  0
 28 29  1  0
 29 30  1  0
 29 35  1  0
 30 31  1  0
 31 32  1  0
 32 33  1  0
 32 34  1  0
 34 35  1  0
  1 38  1  0
  1 39  1  0
  2 40  1  0
  2 41  1  0
  3 42  1  1
  4 43  1  0
  4 44  1  0
  5 45  1  0
  6 46  1  0
  6 47  1  0
  7 48  1  0
  8 49  1  0
  8 50  1  0
  9 51  1  0
  9 52  1  0
 10 53  1  0
 11 54  1  0
 12 55  1  0
 13 56  1  0
 14 57  1  1
 15 58  1  6
 16 59  1  0
 16 60  1  0
 17 61  1  0
 17 62  1  0
 18 63  1  0
 19 64  1  0
 19 65  1  0
 20 66  1  0
 21 67  1  0
 22 68  1  0
 23 69  1  0
 23 70  1  0
 24 71  1  0
 24 72  1  0
 25 73  1  0
 26 74  1  0
 26 75  1  0
 27 76  1  0
 27 77  1  0
 28 78  1  0
 28 79  1  0
 30 80  1  0
 30 81  1  0
 31 82  1  0
 31 83  1  0
 33 84  1  0
 33 85  1  0
 33 86  1  0
 34 87  1  0
 34 88  1  0
 35 89  1  0
 35 90  1  0
 36 91  1  0
 37 92  1  0
 37 93  1  0
 37 94  1  0
M  END
$$$$
SRC-ABL TYROSINE KINASE ANCESTOR
     RDKit          3D

 94 98  0  0  0  0  0  0  0  0999 V2000
    0.9316    5.3861    1.0666 C   0  0  0  0  0  0  0  0  0  0  0  0
    0.7560    4.4457   -0.1227 C   0  0  0  0  0  0  0  0  0  0  0  0
   -0.0099    3.2645    0.3787 C   0  0  1  0  0  0  0  0  0  0  0  0
   -1.2704    3.7826    1.0620 C   0  0  0  0  0  0  0  0  0  0  0  0
   -1.4529    5.2021    0.7879 N   0  0  0  0  0  0  0  0  0  0  0  0
   -0.4065    5.9108    1.5309 C   0  0  0  0  0  0  0  0  0  0  0  0
   -0.3246    2.2316   -0.6466 C   0  0  0  0  0  0  0  0  0  0  0  0
   -1.1310    2.6999   -1.8033 C   0  0  0  0  0  0  0  0  0  0  0  0
   -0.8851    1.6745   -2.9176 C   0  0  0  0  0  0  0  0  0  0  0  0
   -0.6648    0.3942   -2.2851 N   0  0  0  0  0  0  0  0  0  0  0  0
    0.6822    0.3033   -1.6704 C   0  0  0  0  0  0  0  0  0  0  0  0
    0.9078    1.5633   -1.0271 N   0  0  0  0  0  0  0  0  0  0  0  0
    1.5423   -0.1107   -2.6646 N   0  0  0  0  0  0  0  0  0  0  0  0
    2.9001   -0.3301   -2.5911 C   0  0  1  0  0  0  0  0  0  0  0  0
    3.6215    1.0142   -2.3839 C   0  0  1  0  0  0  0  0  0  0  0  0
    5.0826    0.7166   -2.0290 C   0  0  0  0  0  0  0  0  0  0  0  0
    5.0412    0.2735   -0.5914 C   0  0  0  0  0  0  0  0  0  0  0  0
    4.2583   -1.0122   -0.5326 C   0  0  0  0  0  0  0  0  0  0  0  0
    3.4785   -1.3886   -1.7259 C   0  0  0  0  0  0  0  0  0  0  0  0
    3.5132   -0.9761    0.7240 N   0  0  0  0  0  0  0  0  0  0  0  0
    2.6637   -2.0775    0.9803 C   0  0  0  0  0  0  0  0  0  0  0  0
    2.0511   -1.9077    2.3870 C   0  0  0  0  0  0  0  0  0  0  0  0
    1.2695   -0.6390    2.4838 C   0  0  0  0  0  0  0  0  0  0  0  0
    0.0850   -0.6422    3.3653 C   0  0  0  0  0  0  0  0  0  0  0  0
   -0.6596   -1.9387    3.4188 C   0  0  0  0  0  0  0  0  0  0  0  0
   -0.2086   -2.8727    2.3340 C   0  0  0  0  0  0  0  0  0  0  0  0
    1.2644   -3.1426    2.6649 C   0  0  0  0  0  0  0  0  0  0  0  0
   -2.1166   -1.7710    3.4371 C   0  0  0  0  0  0  0  0  0  0  0  0
   -2.7711   -1.0998    2.3735 N   0  0  0  0  0  0  0  0  0  0  0  0
   -4.1865   -1.0060    2.8107 C   0  0  0  0  0  0  0  0  0  0  0  0
   -4.9907   -0.0772    1.9718 C   0  0  0  0  0  0  0  0  0  0  0  0
   -4.6508   -0.2758    0.5889 N   0  0  0  0  0  0  0  0  0  0  0  0
   -5.6548    0.1300   -0.3449 C   0  0  0  0  0  0  0  0  0  0  0  0
   -4.2230   -1.6372    0.4441 C   0  0  0  0  0  0  0  0  0  0  0  0
   -2.8449   -1.8062    1.1153 C   0  0  0  0  0  0  0  0  0  0  0  0
    3.3726   -3.2780    0.9742 O   0  0  0  0  0  0  0  0  0  0  0  0
    3.5061    1.9186   -3.5880 C   0  0  0  0  0  0  0  0  0  0  0  0
    1.6497    6.1885    0.8459 H   0  0  0  0  0  0  0  0  0  0  0  0
    1.3244    4.7623    1.8951 H   0  0  0  0  0  0  0  0  0  0  0  0
    1.7815    4.2007   -0.4537 H   0  0  0  0  0  0  0  0  0  0  0  0
    0.2154    5.0377   -0.8839 H   0  0  0  0  0  0  0  0  0  0  0  0
    0.6108    2.8374    1.2197 H   0  0  0  0  0  0  0  0  0  0  0  0
   -1.3122    3.5500    2.1370 H   0  0  0  0  0  0  0  0  0  0  0  0
   -2.1245    3.2626    0.5919 H   0  0  0  0  0  0  0  0  0  0  0  0
   -2.4036    5.4590    1.0880 H   0  0  0  0  0  0  0  0  0  0  0  0
   -0.5087    7.0017    1.3166 H   0  0  0  0  0  0  0  0  0  0  0  0
   -0.5483    5.7994    2.6337 H   0  0  0  0  0  0  0  0  0  0  0  0
   -0.9232    1.4313   -0.1188 H   0  0  0  0  0  0  0  0  0  0  0  0
   -0.9694    3.7284   -2.1287 H   0  0  0  0  0  0  0  0  0  0  0  0
   -2.2186    2.6176   -1.5249 H   0  0  0  0  0  0  0  0  0  0  0  0
   -0.0611    2.0246   -3.5392 H   0  0  0  0  0  0  0  0  0  0  0  0
   -1.7911    1.5627   -3.5407 H   0  0  0  0  0  0  0  0  0  0  0  0
   -0.7636   -0.3712   -2.9895 H   0  0  0  0  0  0  0  0  0  0  0  0
    0.4545   -0.4802   -0.8748 H   0  0  0  0  0  0  0  0  0  0  0  0
    1.3638    1.3652   -0.0789 H   0  0  0  0  0  0  0  0  0  0  0  0
    1.1125   -0.3566   -3.5913 H   0  0  0  0  0  0  0  0  0  0  0  0
    3.2262   -0.5901   -3.6490 H   0  0  0  0  0  0  0  0  0  0  0  0
    3.2218    1.5697   -1.5214 H   0  0  0  0  0  0  0  0  0  0  0  0
    5.4033   -0.0664   -2.7136 H   0  0  0  0  0  0  0  0  0  0  0  0
    5.6140    1.6767   -2.1614 H   0  0  0  0  0  0  0  0  0  0  0  0
    6.0573    0.1327   -0.1644 H   0  0  0  0  0  0  0  0  0  0  0  0
    4.5771    1.0695    0.0383 H   0  0  0  0  0  0  0  0  0  0  0  0
    5.0474   -1.8081   -0.2970 H   0  0  0  0  0  0  0  0  0  0  0  0
    4.1652   -2.0635   -2.3307 H   0  0  0  0  0  0  0  0  0  0  0  0
    2.6752   -2.0869   -1.4405 H   0  0  0  0  0  0  0  0  0  0  0  0
    4.2215   -0.9086    1.4858 H   0  0  0  0  0  0  0  0  0  0  0  0
    1.7631   -2.1556    0.3357 H   0  0  0  0  0  0  0  0  0  0  0  0
    2.9100   -1.8646    3.0794 H   0  0  0  0  0  0  0  0  0  0  0  0
    0.9139   -0.4168    1.4533 H   0  0  0  0  0  0  0  0  0  0  0  0
    1.9437    0.2069    2.7315 H   0  0  0  0  0  0  0  0  0  0  0  0
   -0.6293    0.1651    3.0342 H   0  0  0  0  0  0  0  0  0  0  0  0
    0.3642   -0.3481    4.3912 H   0  0  0  0  0  0  0  0  0  0  0  0
   -0.3397   -2.4237    4.4013 H   0  0  0  0  0  0  0  0  0  0  0  0
   -0.3077   -2.3805    1.3693 H   0  0  0  0  0  0  0  0  0  0  0  0
   -0.7574   -3.8145    2.3392 H   0  0  0  0  0  0  0  0  0  0  0  0
    1.2926   -3.4950    3.7052 H   0  0  0  0  0  0  0  0  0  0  0  0
    1.5951   -3.9582    1.9993 H   0  0  0  0  0  0  0  0  0  0  0  0
   -2.6419   -2.7756    3.5373 H   0  0  0  0  0  0  0  0  0  0  0  0
   -2.4063   -1.2668    4.4149 H   0  0  0  0  0  0  0  0  0  0  0  0
   -4.1025   -0.6604    3.8733 H   0  0  0  0  0  0  0  0  0  0  0  0
   -4.6008   -2.0287    2.8266 H   0  0  0  0  0  0  0  0  0  0  0  0
   -6.0643   -0.3428    2.1340 H   0  0  0  0  0  0  0  0  0  0  0  0
   -4.8248    0.9670    2.3161 H   0  0  0  0  0  0  0  0  0  0  0  0
   -6.4011    0.7741    0.1764 H   0  0  0  0  0  0  0  0  0  0  0  0
   -5.1784    0.7882   -1.1153 H   0  0  0  0  0  0  0  0  0  0  0  0
   -6.1635   -0.7037   -0.8388 H   0  0  0  0  0  0  0  0  0  0  0  0
   -4.0979   -1.8230   -0.6570 H   0  0  0  0  0  0  0  0  0  0  0  0
   -4.8930   -2.3956    0.8645 H   0  0  0  0  0  0  0  0  0  0  0  0
   -2.1452   -1.3889    0.3577 H   0  0  0  0  0  0  0  0  0  0  0  0
   -2.6181   -2.8851    1.2079 H   0  0  0  0  0  0  0  0  0  0  0  0
    4.0011   -3.3016    1.7449 H   0  0  0  0  0  0  0  0  0  0  0  0
    3.3640    2.9770   -3.3174 H   0  0  0  0  0  0  0  0  0  0  0  0
    4.3065    1.7515   -4.3238 H   0  0  0  0  0  0  0  0  0  0  0  0
    2.5469    1.6185   -4.0995 H   0  0  0  0  0  0  0  0  0  0  0  0
  1  2  1  0
  1  6  1  0
  2  3  1  0
  3  4  1  0
  3  7  1  0
  4  5  1  0
  5  6  1  0
  7  8  1  0
  7 12  1  0
  8  9  1  0
  9 10  1  0
 10 11  1  0
 11 12  1  0
 11 13  1  0
 13 14  1  0
 14 15  1  0
 14 19  1  0
 15 16  1  0
 15 37  1  0
 16 17  1  0
 17 18  1  0
 18 19  1  0
 18 20  1  0
 20 21  1  0
 21 22  1  0
 21 36  1  0
 22 23  1  0
 22 27  1  0
 23 24  1  0
 24 25  1  0
 25 26  1  0
 25 28  1  0
 26 27  1  0
 28 29  1  0
 29 30  1  0
 29 35  1  0
 30 31  1  0
 31 32  1  0
 32 33  1  0
 32 34  1  0
 34 35  1  0
  1 38  1  0
  1 39  1  0
  2 40  1  0
  2 41  1  0
  3 42  1  1
  4 43  1  0
  4 44  1  0
  5 45  1  0
  6 46  1  0
  6 47  1  0
  7 48  1  0
  8 49  1  0
  8 50  1  0
  9 51  1  0
  9 52  1  0
 10 53  1  0
 11 54  1  0
 12 55  1  0
 13 56  1  0
 14 57  1  6
 15 58  1  1
 16 59  1  0
 16 60  1  0
 17 61  1  0
 17 62  1  0
 18 63  1  0
 19 64  1  0
 19 65  1  0
 20 66  1  0
 21 67  1  0
 22 68  1  0
 23 69  1  0
 23 70  1  0
 24 71  1  0
 24 72  1  0
 25 73  1  0
 26 74  1  0
 26 75  1  0
 27 76  1  0
 27 77  1  0
 28 78  1  0
 28 79  1  0
 30 80  1  0
 30 81  1  0
 31 82  1  0
 31 83  1  0
 33 84  1  0
 33 85  1  0
 33 86  1  0
 34 87  1  0
 34 88  1  0
 35 89  1  0
 35 90  1  0
 36 91  1  0
 37 92  1  0
 37 93  1  0
 37 94  1  0
M  END
$$$$
SRC-ABL TYROSINE KINASE ANCESTOR
     RDKit          3D

 94 98  0  0  0  0  0  0  0  0999 V2000
    1.5901    4.0830    2.2585 C   0  0  0  0  0  0  0  0  0  0  0  0
    2.4314    2.8548    2.1048 C   0  0  0  0  0  0  0  0  0  0  0  0
    1.7923    1.7535    1.3041 C   0  0  1  0  0  0  0  0  0  0  0  0
    0.3390    1.5870    1.7177 C   0  0  0  0  0  0  0  0  0  0  0  0
   -0.3031    2.8888    1.4843 N   0  0  0  0  0  0  0  0  0  0  0  0
    0.1426    3.7571    2.5592 C   0  0  0  0  0  0  0  0  0  0  0  0
    1.8661    1.9660   -0.1923 C   0  0  0  0  0  0  0  0  0  0  0  0
    3.2824    2.1060   -0.7043 C   0  0  0  0  0  0  0  0  0  0  0  0
    3.0780    2.5495   -2.1648 C   0  0  0  0  0  0  0  0  0  0  0  0
    2.4778    1.4468   -2.8216 N   0  0  0  0  0  0  0  0  0  0  0  0
    1.2535    0.9414   -2.2974 C   0  0  0  0  0  0  0  0  0  0  0  0
    1.1370    0.9356   -0.8782 N   0  0  0  0  0  0  0  0  0  0  0  0
    0.2019    1.7873   -2.8122 N   0  0  0  0  0  0  0  0  0  0  0  0
   -1.1459    1.3466   -2.4767 C   0  0  1  0  0  0  0  0  0  0  0  0
   -2.0476    2.4813   -2.9390 C   0  0  1  0  0  0  0  0  0  0  0  0
   -3.4759    2.0397   -3.1350 C   0  0  0  0  0  0  0  0  0  0  0  0
   -3.5534    0.7849   -3.9361 C   0  0  0  0  0  0  0  0  0  0  0  0
   -2.8441   -0.3161   -3.1940 C   0  0  0  0  0  0  0  0  0  0  0  0
   -1.3803    0.0547   -3.1852 C   0  0  0  0  0  0  0  0  0  0  0  0
   -3.2917   -0.5064   -1.8467 N   0  0  0  0  0  0  0  0  0  0  0  0
   -2.8115   -1.7298   -1.2746 C   0  0  0  0  0  0  0  0  0  0  0  0
   -3.2739   -1.9950    0.1371 C   0  0  0  0  0  0  0  0  0  0  0  0
   -2.7442   -3.3330    0.6423 C   0  0  0  0  0  0  0  0  0  0  0  0
   -1.2778   -3.3469    0.8699 C   0  0  0  0  0  0  0  0  0  0  0  0
   -0.7314   -2.1017    1.4789 C   0  0  0  0  0  0  0  0  0  0  0  0
   -1.8760   -1.3394    2.1066 C   0  0  0  0  0  0  0  0  0  0  0  0
   -2.9198   -0.8949    1.1028 C   0  0  0  0  0  0  0  0  0  0  0  0
    0.2149   -2.4783    2.5987 C   0  0  0  0  0  0  0  0  0  0  0  0
    1.3156   -3.2786    2.1421 N   0  0  0  0  0  0  0  0  0  0  0  0
    2.2559   -2.6171    1.2984 C   0  0  0  0  0  0  0  0  0  0  0  0
    3.2358   -3.6429    0.7695 C   0  0  0  0  0  0  0  0  0  0  0  0
    2.8326   -4.9756    1.1144 N   0  0  0  0  0  0  0  0  0  0  0  0
    1.8230   -5.5340    0.2611 C   0  0  0  0  0  0  0  0  0  0  0  0
    2.6366   -5.2094    2.5104 C   0  0  0  0  0  0  0  0  0  0  0  0
    1.9315   -4.0489    3.1975 C   0  0  0  0  0  0  0  0  0  0  0  0
   -3.2491   -2.7547   -2.1320 O   0  0  0  0  0  0  0  0  0  0  0  0
   -2.0696    3.5337   -1.8499 C   0  0  0  0  0  0  0  0  0  0  0  0
    1.6025    4.7492    1.3920 H   0  0  0  0  0  0  0  0  0  0  0  0
    1.9620    4.6466    3.1376 H   0  0  0  0  0  0  0  0  0  0  0  0
    3.4199    3.1298    1.7509 H   0  0  0  0  0  0  0  0  0  0  0  0
    2.5850    2.4255    3.1335 H   0  0  0  0  0  0  0  0  0  0  0  0
    2.3105    0.8079    1.5382 H   0  0  0  0  0  0  0  0  0  0  0  0
    0.3190    1.4013    2.7971 H   0  0  0  0  0  0  0  0  0  0  0  0
   -0.1085    0.8049    1.1067 H   0  0  0  0  0  0  0  0  0  0  0  0
   -1.3285    2.8267    1.5140 H   0  0  0  0  0  0  0  0  0  0  0  0
   -0.4323    4.7010    2.4845 H   0  0  0  0  0  0  0  0  0  0  0  0
    0.0635    3.2539    3.5458 H   0  0  0  0  0  0  0  0  0  0  0  0
    1.3590    2.9281   -0.4024 H   0  0  0  0  0  0  0  0  0  0  0  0
    3.8217    1.1360   -0.7682 H   0  0  0  0  0  0  0  0  0  0  0  0
    3.8184    2.9134   -0.2119 H   0  0  0  0  0  0  0  0  0  0  0  0
    4.0575    2.7533   -2.5905 H   0  0  0  0  0  0  0  0  0  0  0  0
    2.4110    3.4551   -2.1556 H   0  0  0  0  0  0  0  0  0  0  0  0
    3.2048    0.7278   -3.0297 H   0  0  0  0  0  0  0  0  0  0  0  0
    1.1138   -0.0729   -2.7085 H   0  0  0  0  0  0  0  0  0  0  0  0
    1.4700    0.0118   -0.5202 H   0  0  0  0  0  0  0  0  0  0  0  0
    0.3581    2.7945   -2.7074 H   0  0  0  0  0  0  0  0  0  0  0  0
   -1.2732    1.2382   -1.4044 H   0  0  0  0  0  0  0  0  0  0  0  0
   -1.6150    2.9380   -3.8467 H   0  0  0  0  0  0  0  0  0  0  0  0
   -3.9624    2.8453   -3.7621 H   0  0  0  0  0  0  0  0  0  0  0  0
   -4.0072    2.0276   -2.1824 H   0  0  0  0  0  0  0  0  0  0  0  0
   -4.6037    0.5482   -4.1910 H   0  0  0  0  0  0  0  0  0  0  0  0
   -3.0129    0.9483   -4.8885 H   0  0  0  0  0  0  0  0  0  0  0  0
   -2.9379   -1.2709   -3.7894 H   0  0  0  0  0  0  0  0  0  0  0  0
   -1.0117    0.1284   -4.2486 H   0  0  0  0  0  0  0  0  0  0  0  0
   -0.7629   -0.7137   -2.6832 H   0  0  0  0  0  0  0  0  0  0  0  0
   -3.1066    0.3563   -1.3395 H   0  0  0  0  0  0  0  0  0  0  0  0
   -1.6863   -1.8389   -1.3144 H   0  0  0  0  0  0  0  0  0  0  0  0
   -4.3716   -2.0866    0.1196 H   0  0  0  0  0  0  0  0  0  0  0  0
   -3.0865   -4.0819   -0.1018 H   0  0  0  0  0  0  0  0  0  0  0  0
   -3.2726   -3.5660    1.5973 H   0  0  0  0  0  0  0  0  0  0  0  0
   -0.9503   -4.2419    1.4366 H   0  0  0  0  0  0  0  0  0  0  0  0
   -0.8016   -3.4772   -0.1469 H   0  0  0  0  0  0  0  0  0  0  0  0
   -0.1811   -1.5288    0.7374 H   0  0  0  0  0  0  0  0  0  0  0  0
   -1.5159   -0.4381    2.6426 H   0  0  0  0  0  0  0  0  0  0  0  0
   -2.3139   -1.9975    2.8863 H   0  0  0  0  0  0  0  0  0  0  0  0
   -2.6364    0.0029    0.5634 H   0  0  0  0  0  0  0  0  0  0  0  0
   -3.8198   -0.6604    1.7062 H   0  0  0  0  0  0  0  0  0  0  0  0
   -0.2874   -3.0323    3.4182 H   0  0  0  0  0  0  0  0  0  0  0  0
    0.6701   -1.5499    3.0404 H   0  0  0  0  0  0  0  0  0  0  0  0
    1.7155   -2.1717    0.4402 H   0  0  0  0  0  0  0  0  0  0  0  0
    2.8265   -1.8154    1.8230 H   0  0  0  0  0  0  0  0  0  0  0  0
    4.2580   -3.4517    1.2019 H   0  0  0  0  0  0  0  0  0  0  0  0
    3.3137   -3.5525   -0.3360 H   0  0  0  0  0  0  0  0  0  0  0  0
    1.2403   -4.7281   -0.2458 H   0  0  0  0  0  0  0  0  0  0  0  0
    1.1145   -6.1898    0.8283 H   0  0  0  0  0  0  0  0  0  0  0  0
    2.2515   -6.1467   -0.5616 H   0  0  0  0  0  0  0  0  0  0  0  0
    1.9767   -6.0991    2.6033 H   0  0  0  0  0  0  0  0  0  0  0  0
    3.6134   -5.4225    2.9883 H   0  0  0  0  0  0  0  0  0  0  0  0
    2.6644   -3.4200    3.7029 H   0  0  0  0  0  0  0  0  0  0  0  0
    1.1135   -4.4163    3.8486 H   0  0  0  0  0  0  0  0  0  0  0  0
   -4.2381   -2.6641   -2.1489 H   0  0  0  0  0  0  0  0  0  0  0  0
   -2.2686    4.5526   -2.2379 H   0  0  0  0  0  0  0  0  0  0  0  0
   -1.1048    3.5987   -1.3141 H   0  0  0  0  0  0  0  0  0  0  0  0
   -2.8329    3.2527   -1.0676 H   0  0  0  0  0  0  0  0  0  0  0  0
  1  2  1  0
  1  6  1  0
  2  3  1  0
  3  4  1  0
  3  7  1  0
  4  5  1  0
  5  6  1  0
  7  8  1  0
  7 12  1  0
  8  9  1  0
  9 10  1  0
 10 11  1  0
 11 12  1  0
 11 13  1  0
 13 14  1  0
 14 15  1  0
 14 19  1  0
 15 16  1  0
 15 37  1  0
 16 17  1  0
 17 18  1  0
 18 19  1  0
 18 20  1  0
 20 21  1  0
 21 22  1  0
 21 36  1  0
 22 23  1  0
 22 27  1  0
 23 24  1  0
 24 25  1  0
 25 26  1  0
 25 28  1  0
 26 27  1  0
 28 29  1  0
 29 30  1  0
 29 35  1  0
 30 31  1  0
 31 32  1  0
 32 33  1  0
 32 34  1  0
 34 35  1  0
  1 38  1  0
  1 39  1  0
  2 40  1  0
  2 41  1  0
  3 42  1  6
  4 43  1  0
  4 44  1  0
  5 45  1  0
  6 46  1  0
  6 47  1  0
  7 48  1  0
  8 49  1  0
  8 50  1  0
  9 51  1  0
  9 52  1  0
 10 53  1  0
 11 54  1  0
 12 55  1  0
 13 56  1  0
 14 57  1  1
 15 58  1  6
 16 59  1  0
 16 60  1  0
 17 61  1  0
 17 62  1  0
 18 63  1  0
 19 64  1  0
 19 65  1  0
 20 66  1  0
 21 67  1  0
 22 68  1  0
 23 69  1  0
 23 70  1  0
 24 71  1  0
 24 72  1  0
 25 73  1  0
 26 74  1  0
 26 75  1  0
 27 76  1  0
 27 77  1  0
 28 78  1  0
 28 79  1  0
 30 80  1  0
 30 81  1  0
 31 82  1  0
 31 83  1  0
 33 84  1  0
 33 85  1  0
 33 86  1  0
 34 87  1  0
 34 88  1  0
 35 89  1  0
 35 90  1  0
 36 91  1  0
 37 92  1  0
 37 93  1  0
 37 94  1  0
M  END
$$$$
SRC-ABL TYROSINE KINASE ANCESTOR
     RDKit          3D

 94 98  0  0  0  0  0  0  0  0999 V2000
   -4.1753    0.9197    0.7277 C   0  0  0  0  0  0  0  0  0  0  0  0
   -4.2205   -0.5652    0.9918 C   0  0  0  0  0  0  0  0  0  0  0  0
   -3.0886   -0.9707    1.9496 C   0  0  1  0  0  0  0  0  0  0  0  0
   -3.3745   -0.2237    3.2296 C   0  0  0  0  0  0  0  0  0  0  0  0
   -3.4483    1.1885    3.0399 N   0  0  0  0  0  0  0  0  0  0  0  0
   -3.2967    1.6468    1.6942 C   0  0  0  0  0  0  0  0  0  0  0  0
   -3.1812   -2.4518    2.2507 C   0  0  0  0  0  0  0  0  0  0  0  0
   -3.0648   -3.2850    1.0179 C   0  0  0  0  0  0  0  0  0  0  0  0
   -2.3524   -4.5886    1.2122 C   0  0  0  0  0  0  0  0  0  0  0  0
   -1.3409   -4.6206    2.2022 N   0  0  0  0  0  0  0  0  0  0  0  0
   -1.0664   -3.4480    2.9307 C   0  0  0  0  0  0  0  0  0  0  0  0
   -2.2645   -2.7705    3.2921 N   0  0  0  0  0  0  0  0  0  0  0  0
   -0.0459   -2.5833    2.3943 N   0  0  0  0  0  0  0  0  0  0  0  0
    1.2690   -3.1858    2.3308 C   0  0  1  0  0  0  0  0  0  0  0  0
    1.4471   -4.2322    1.2863 C   0  0  1  0  0  0  0  0  0  0  0  0
    2.5027   -3.8366    0.2609 C   0  0  0  0  0  0  0  0  0  0  0  0
    2.2355   -2.4141   -0.2304 C   0  0  0  0  0  0  0  0  0  0  0  0
    2.2499   -1.4390    0.8974 C   0  0  0  0  0  0  0  0  0  0  0  0
    2.3802   -2.1797    2.2391 C   0  0  0  0  0  0  0  0  0  0  0  0
    3.1135   -0.3452    0.8151 N   0  0  0  0  0  0  0  0  0  0  0  0
    2.8309    0.8103    0.1089 C   0  0  0  0  0  0  0  0  0  0  0  0
    2.7114    0.8927   -1.3522 C   0  0  0  0  0  0  0  0  0  0  0  0
    1.6600    0.0874   -2.0472 C   0  0  0  0  0  0  0  0  0  0  0  0
    1.2792    0.9757   -3.2464 C   0  0  0  0  0  0  0  0  0  0  0  0
    2.4681    1.1939   -4.1242 C   0  0  0  0  0  0  0  0  0  0  0  0
    3.7867    0.9164   -3.5750 C   0  0  0  0  0  0  0  0  0  0  0  0
    3.9818    0.6636   -2.1359 C   0  0  0  0  0  0  0  0  0  0  0  0
    2.3628    2.5009   -4.8337 C   0  0  0  0  0  0  0  0  0  0  0  0
    2.2718    3.6959   -4.1053 N   0  0  0  0  0  0  0  0  0  0  0  0
    3.3906    4.1737   -3.4056 C   0  0  0  0  0  0  0  0  0  0  0  0
    3.0526    5.4215   -2.6029 C   0  0  0  0  0  0  0  0  0  0  0  0
    2.3583    6.4258   -3.3416 N   0  0  0  0  0  0  0  0  0  0  0  0
    1.7886    7.3559   -2.3683 C   0  0  0  0  0  0  0  0  0  0  0  0
    1.2233    5.8872   -4.0748 C   0  0  0  0  0  0  0  0  0  0  0  0
    1.7227    4.7772   -4.9419 C   0  0  0  0  0  0  0  0  0  0  0  0
    3.8774    1.7568    0.4376 O   0  0  0  0  0  0  0  0  0  0  0  0
    1.9382   -5.5197    1.9068 C   0  0  0  0  0  0  0  0  0  0  0  0
   -3.7430    1.0727   -0.2980 H   0  0  0  0  0  0  0  0  0  0  0  0
   -5.1697    1.3753    0.7340 H   0  0  0  0  0  0  0  0  0  0  0  0
   -5.1882   -0.7811    1.4966 H   0  0  0  0  0  0  0  0  0  0  0  0
   -4.1764   -1.1225    0.0460 H   0  0  0  0  0  0  0  0  0  0  0  0
   -2.1137   -0.6923    1.5076 H   0  0  0  0  0  0  0  0  0  0  0  0
   -4.3836   -0.5846    3.5709 H   0  0  0  0  0  0  0  0  0  0  0  0
   -2.5899   -0.4817    3.9684 H   0  0  0  0  0  0  0  0  0  0  0  0
   -2.8111    1.6601    3.7026 H   0  0  0  0  0  0  0  0  0  0  0  0
   -3.6053    2.7243    1.6485 H   0  0  0  0  0  0  0  0  0  0  0  0
   -2.2463    1.6473    1.3355 H   0  0  0  0  0  0  0  0  0  0  0  0
   -4.2064   -2.5960    2.6677 H   0  0  0  0  0  0  0  0  0  0  0  0
   -2.4922   -2.7036    0.2634 H   0  0  0  0  0  0  0  0  0  0  0  0
   -4.0523   -3.4890    0.5531 H   0  0  0  0  0  0  0  0  0  0  0  0
   -3.0751   -5.4102    1.4352 H   0  0  0  0  0  0  0  0  0  0  0  0
   -1.8651   -4.9130    0.2454 H   0  0  0  0  0  0  0  0  0  0  0  0
   -1.2325   -5.5063    2.7088 H   0  0  0  0  0  0  0  0  0  0  0  0
   -0.6243   -3.8024    3.9219 H   0  0  0  0  0  0  0  0  0  0  0  0
   -2.6969   -3.0931    4.1792 H   0  0  0  0  0  0  0  0  0  0  0  0
   -0.3052   -2.2591    1.4287 H   0  0  0  0  0  0  0  0  0  0  0  0
    1.3724   -3.7269    3.3506 H   0  0  0  0  0  0  0  0  0  0  0  0
    0.4941   -4.4541    0.8076 H   0  0  0  0  0  0  0  0  0  0  0  0
    3.5217   -3.9649    0.6559 H   0  0  0  0  0  0  0  0  0  0  0  0
    2.3848   -4.5068   -0.6080 H   0  0  0  0  0  0  0  0  0  0  0  0
    1.3205   -2.4480   -0.8328 H   0  0  0  0  0  0  0  0  0  0  0  0
    3.0827   -2.1815   -0.9000 H   0  0  0  0  0  0  0  0  0  0  0  0
    1.1775   -1.0402    0.9507 H   0  0  0  0  0  0  0  0  0  0  0  0
    3.3350   -2.7213    2.3102 H   0  0  0  0  0  0  0  0  0  0  0  0
    2.2519   -1.4320    3.0518 H   0  0  0  0  0  0  0  0  0  0  0  0
    3.7705   -0.2235    1.6150 H   0  0  0  0  0  0  0  0  0  0  0  0
    1.9239    1.3689    0.5421 H   0  0  0  0  0  0  0  0  0  0  0  0
    2.4575    2.0030   -1.5593 H   0  0  0  0  0  0  0  0  0  0  0  0
    0.7699   -0.1546   -1.4875 H   0  0  0  0  0  0  0  0  0  0  0  0
    2.0624   -0.8423   -2.5408 H   0  0  0  0  0  0  0  0  0  0  0  0
    0.9015    1.9134   -2.8114 H   0  0  0  0  0  0  0  0  0  0  0  0
    0.4403    0.4695   -3.7416 H   0  0  0  0  0  0  0  0  0  0  0  0
    2.3002    0.4232   -4.9708 H   0  0  0  0  0  0  0  0  0  0  0  0
    4.5649    1.6783   -3.8985 H   0  0  0  0  0  0  0  0  0  0  0  0
    4.2334   -0.0141   -4.0913 H   0  0  0  0  0  0  0  0  0  0  0  0
    4.8230    1.2704   -1.7268 H   0  0  0  0  0  0  0  0  0  0  0  0
    4.2497   -0.4023   -1.9664 H   0  0  0  0  0  0  0  0  0  0  0  0
    3.2583    2.6207   -5.5390 H   0  0  0  0  0  0  0  0  0  0  0  0
    1.5066    2.4991   -5.5762 H   0  0  0  0  0  0  0  0  0  0  0  0
    4.2007    4.4276   -4.1336 H   0  0  0  0  0  0  0  0  0  0  0  0
    3.8247    3.4800   -2.6896 H   0  0  0  0  0  0  0  0  0  0  0  0
    4.0336    5.8467   -2.2806 H   0  0  0  0  0  0  0  0  0  0  0  0
    2.5459    5.1227   -1.6567 H   0  0  0  0  0  0  0  0  0  0  0  0
    1.1334    6.8066   -1.6478 H   0  0  0  0  0  0  0  0  0  0  0  0
    2.6207    7.8377   -1.8169 H   0  0  0  0  0  0  0  0  0  0  0  0
    1.1760    8.1008   -2.8867 H   0  0  0  0  0  0  0  0  0  0  0  0
    0.4023    5.5506   -3.4097 H   0  0  0  0  0  0  0  0  0  0  0  0
    0.8286    6.7022   -4.7146 H   0  0  0  0  0  0  0  0  0  0  0  0
    0.9407    4.4058   -5.6178 H   0  0  0  0  0  0  0  0  0  0  0  0
    2.6179    5.1565   -5.5037 H   0  0  0  0  0  0  0  0  0  0  0  0
    3.6808    2.5765   -0.0864 H   0  0  0  0  0  0  0  0  0  0  0  0
    1.3184   -5.8511    2.7578 H   0  0  0  0  0  0  0  0  0  0  0  0
    3.0157   -5.3630    2.2017 H   0  0  0  0  0  0  0  0  0  0  0  0
    1.9642   -6.2946    1.0872 H   0  0  0  0  0  0  0  0  0  0  0  0
  1  2  1  0
  1  6  1  0
  2  3  1  0
  3  4  1  0
  3  7  1  0
  4  5  1  0
  5  6  1  0
  7  8  1  0
  7 12  1  0
  8  9  1  0
  9 10  1  0
 10 11  1  0
 11 12  1  0
 11 13  1  0
 13 14  1  0
 14 15  1  0
 14 19  1  0
 15 16  1  0
 15 37  1  0
 16 17  1  0
 17 18  1  0
 18 19  1  0
 18 20  1  0
 20 21  1  0
 21 22  1  0
 21 36  1  0
 22 23  1  0
 22 27  1  0
 23 24  1  0
 24 25  1  0
 25 26  1  0
 25 28  1  0
 26 27  1  0
 28 29  1  0
 29 30  1  0
 29 35  1  0
 30 31  1  0
 31 32  1  0
 32 33  1  0
 32 34  1  0
 34 35  1  0
  1 38  1  0
  1 39  1  0
  2 40  1  0
  2 41  1  0
  3 42  1  6
  4 43  1  0
  4 44  1  0
  5 45  1  0
  6 46  1  0
  6 47  1  0
  7 48  1  0
  8 49  1  0
  8 50  1  0
  9 51  1  0
  9 52  1  0
 10 53  1  0
 11 54  1  0
 12 55  1  0
 13 56  1  0
 14 57  1  1
 15 58  1  6
 16 59  1  0
 16 60  1  0
 17 61  1  0
 17 62  1  0
 18 63  1  0
 19 64  1  0
 19 65  1  0
 20 66  1  0
 21 67  1  0
 22 68  1  0
 23 69  1  0
 23 70  1  0
 24 71  1  0
 24 72  1  0
 25 73  1  0
 26 74  1  0
 26 75  1  0
 27 76  1  0
 27 77  1  0
 28 78  1  0
 28 79  1  0
 30 80  1  0
 30 81  1  0
 31 82  1  0
 31 83  1  0
 33 84  1  0
 33 85  1  0
 33 86  1  0
 34 87  1  0
 34 88  1  0
 35 89  1  0
 35 90  1  0
 36 91  1  0
 37 92  1  0
 37 93  1  0
 37 94  1  0
M  END
$$$$
SRC-ABL TYROSINE KINASE ANCESTOR
     RDKit          3D

 94 98  0  0  0  0  0  0  0  0999 V2000
   -1.0960    3.2793   -8.7031 C   0  0  0  0  0  0  0  0  0  0  0  0
   -1.2147    1.7889   -8.5165 C   0  0  0  0  0  0  0  0  0  0  0  0
   -0.9025    1.3748   -7.1106 C   0  0  1  0  0  0  0  0  0  0  0  0
   -1.8312    2.0839   -6.1636 C   0  0  0  0  0  0  0  0  0  0  0  0
   -2.1251    3.4355   -6.5768 N   0  0  0  0  0  0  0  0  0  0  0  0
   -1.0607    3.9983   -7.3856 C   0  0  0  0  0  0  0  0  0  0  0  0
   -1.0840   -0.1377   -6.9692 C   0  0  0  0  0  0  0  0  0  0  0  0
   -0.1696   -0.9052   -7.8856 C   0  0  0  0  0  0  0  0  0  0  0  0
   -0.5006   -2.3732   -7.7271 C   0  0  0  0  0  0  0  0  0  0  0  0
   -0.6153   -2.7837   -6.3727 N   0  0  0  0  0  0  0  0  0  0  0  0
   -0.2431   -1.7773   -5.4063 C   0  0  0  0  0  0  0  0  0  0  0  0
   -0.7669   -0.4849   -5.6089 N   0  0  0  0  0  0  0  0  0  0  0  0
   -0.5234   -2.2761   -4.0935 N   0  0  0  0  0  0  0  0  0  0  0  0
   -0.2936   -1.4093   -3.0162 C   0  0  1  0  0  0  0  0  0  0  0  0
   -1.4844   -0.7168   -2.4065 C   0  0  1  0  0  0  0  0  0  0  0  0
   -0.9025    0.5452   -1.7520 C   0  0  0  0  0  0  0  0  0  0  0  0
    0.3991    0.3219   -1.0929 C   0  0  0  0  0  0  0  0  0  0  0  0
    0.8748   -1.0477   -0.8463 C   0  0  0  0  0  0  0  0  0  0  0  0
    0.3806   -2.0873   -1.8281 C   0  0  0  0  0  0  0  0  0  0  0  0
    0.7764   -1.5803    0.4639 N   0  0  0  0  0  0  0  0  0  0  0  0
   -0.4785   -1.6596    1.0968 C   0  0  0  0  0  0  0  0  0  0  0  0
   -0.4265   -2.3091    2.4655 C   0  0  0  0  0  0  0  0  0  0  0  0
   -1.7734   -2.3390    3.0549 C   0  0  0  0  0  0  0  0  0  0  0  0
   -1.8736   -2.0974    4.5208 C   0  0  0  0  0  0  0  0  0  0  0  0
   -0.7781   -1.3181    5.1506 C   0  0  0  0  0  0  0  0  0  0  0  0
    0.5347   -1.9496    4.7477 C   0  0  0  0  0  0  0  0  0  0  0  0
    0.6505   -1.6726    3.2598 C   0  0  0  0  0  0  0  0  0  0  0  0
   -0.9647   -1.3071    6.6465 C   0  0  0  0  0  0  0  0  0  0  0  0
    0.0161   -0.6021    7.3691 N   0  0  0  0  0  0  0  0  0  0  0  0
    0.0971    0.7943    7.2485 C   0  0  0  0  0  0  0  0  0  0  0  0
    1.4366    1.3276    6.8517 C   0  0  0  0  0  0  0  0  0  0  0  0
    2.5686    0.5656    7.1699 N   0  0  0  0  0  0  0  0  0  0  0  0
    3.7437    1.3195    7.5187 C   0  0  0  0  0  0  0  0  0  0  0  0
    2.4530   -0.6853    7.7993 C   0  0  0  0  0  0  0  0  0  0  0  0
    1.1128   -1.3062    7.9082 C   0  0  0  0  0  0  0  0  0  0  0  0
   -1.0077   -0.3855    1.2769 O   0  0  0  0  0  0  0  0  0  0  0  0
   -2.6171   -0.4175   -3.3083 C   0  0  0  0  0  0  0  0  0  0  0  0
   -2.0390    3.6174   -9.2253 H   0  0  0  0  0  0  0  0  0  0  0  0
   -0.2465    3.5792   -9.3589 H   0  0  0  0  0  0  0  0  0  0  0  0
   -2.2562    1.4313   -8.7198 H   0  0  0  0  0  0  0  0  0  0  0  0
   -0.4773    1.3457   -9.2470 H   0  0  0  0  0  0  0  0  0  0  0  0
    0.1663    1.6486   -6.9256 H   0  0  0  0  0  0  0  0  0  0  0  0
   -2.7842    1.5273   -6.1714 H   0  0  0  0  0  0  0  0  0  0  0  0
   -1.3920    2.1697   -5.1461 H   0  0  0  0  0  0  0  0  0  0  0  0
   -2.2718    4.0754   -5.7643 H   0  0  0  0  0  0  0  0  0  0  0  0
   -0.0718    3.9844   -6.8963 H   0  0  0  0  0  0  0  0  0  0  0  0
   -1.3172    5.0831   -7.5223 H   0  0  0  0  0  0  0  0  0  0  0  0
   -2.1232   -0.4348   -7.1560 H   0  0  0  0  0  0  0  0  0  0  0  0
    0.8860   -0.7695   -7.6128 H   0  0  0  0  0  0  0  0  0  0  0  0
   -0.3856   -0.6442   -8.9634 H   0  0  0  0  0  0  0  0  0  0  0  0
    0.2297   -2.9705   -8.3125 H   0  0  0  0  0  0  0  0  0  0  0  0
   -1.4977   -2.5296   -8.2221 H   0  0  0  0  0  0  0  0  0  0  0  0
   -1.4058   -3.3796   -6.1170 H   0  0  0  0  0  0  0  0  0  0  0  0
    0.8991   -1.7501   -5.4692 H   0  0  0  0  0  0  0  0  0  0  0  0
   -0.0619    0.2252   -5.2613 H   0  0  0  0  0  0  0  0  0  0  0  0
   -0.2127   -3.2650   -3.9539 H   0  0  0  0  0  0  0  0  0  0  0  0
    0.4804   -0.6222   -3.3177 H   0  0  0  0  0  0  0  0  0  0  0  0
   -1.8884   -1.3924   -1.6030 H   0  0  0  0  0  0  0  0  0  0  0  0
   -0.8665    1.2875   -2.5790 H   0  0  0  0  0  0  0  0  0  0  0  0
   -1.6845    0.9853   -1.0626 H   0  0  0  0  0  0  0  0  0  0  0  0
    0.3799    0.8730   -0.1048 H   0  0  0  0  0  0  0  0  0  0  0  0
    1.1600    0.9359   -1.6684 H   0  0  0  0  0  0  0  0  0  0  0  0
    1.9969   -1.0292   -1.0516 H   0  0  0  0  0  0  0  0  0  0  0  0
    1.1703   -2.7343   -2.2458 H   0  0  0  0  0  0  0  0  0  0  0  0
   -0.3855   -2.7599   -1.3848 H   0  0  0  0  0  0  0  0  0  0  0  0
    1.4470   -1.1358    1.1565 H   0  0  0  0  0  0  0  0  0  0  0  0
   -1.2502   -2.2364    0.5472 H   0  0  0  0  0  0  0  0  0  0  0  0
   -0.0594   -3.3589    2.2475 H   0  0  0  0  0  0  0  0  0  0  0  0
   -2.2292   -3.3398    2.8538 H   0  0  0  0  0  0  0  0  0  0  0  0
   -2.4671   -1.6168    2.5484 H   0  0  0  0  0  0  0  0  0  0  0  0
   -2.8399   -1.5983    4.8010 H   0  0  0  0  0  0  0  0  0  0  0  0
   -1.9222   -3.0838    5.0697 H   0  0  0  0  0  0  0  0  0  0  0  0
   -0.7954   -0.2996    4.7144 H   0  0  0  0  0  0  0  0  0  0  0  0
    0.5262   -3.0222    4.9733 H   0  0  0  0  0  0  0  0  0  0  0  0
    1.3418   -1.3927    5.2300 H   0  0  0  0  0  0  0  0  0  0  0  0
    0.6714   -0.5689    3.1411 H   0  0  0  0  0  0  0  0  0  0  0  0
    1.6537   -2.0441    2.9670 H   0  0  0  0  0  0  0  0  0  0  0  0
   -0.9727   -2.3685    6.9885 H   0  0  0  0  0  0  0  0  0  0  0  0
   -1.9708   -0.9091    6.8909 H   0  0  0  0  0  0  0  0  0  0  0  0
   -0.6523    1.1491    6.5040 H   0  0  0  0  0  0  0  0  0  0  0  0
   -0.2360    1.2460    8.2247 H   0  0  0  0  0  0  0  0  0  0  0  0
    1.5434    2.3305    7.3656 H   0  0  0  0  0  0  0  0  0  0  0  0
    1.4671    1.6089    5.7551 H   0  0  0  0  0  0  0  0  0  0  0  0
    4.1851    1.6644    6.5561 H   0  0  0  0  0  0  0  0  0  0  0  0
    3.5382    2.2309    8.1166 H   0  0  0  0  0  0  0  0  0  0  0  0
    4.5156    0.6762    7.9812 H   0  0  0  0  0  0  0  0  0  0  0  0
    2.8555   -0.5523    8.8503 H   0  0  0  0  0  0  0  0  0  0  0  0
    3.1815   -1.4495    7.3810 H   0  0  0  0  0  0  0  0  0  0  0  0
    1.1237   -2.3256    7.4282 H   0  0  0  0  0  0  0  0  0  0  0  0
    0.8802   -1.5204    8.9958 H   0  0  0  0  0  0  0  0  0  0  0  0
   -1.9545   -0.3082    1.0281 H   0  0  0  0  0  0  0  0  0  0  0  0
   -2.5870    0.5580   -3.8329 H   0  0  0  0  0  0  0  0  0  0  0  0
   -3.5509   -0.3547   -2.6542 H   0  0  0  0  0  0  0  0  0  0  0  0
   -2.8220   -1.2729   -3.9599 H   0  0  0  0  0  0  0  0  0  0  0  0
  1  2  1  0
  1  6  1  0
  2  3  1  0
  3  4  1  0
  3  7  1  0
  4  5  1  0
  5  6  1  0
  7  8  1  0
  7 12  1  0
  8  9  1  0
  9 10  1  0
 10 11  1  0
 11 12  1  0
 11 13  1  0
 13 14  1  0
 14 15  1  0
 14 19  1  0
 15 16  1  0
 15 37  1  0
 16 17  1  0
 17 18  1  0
 18 19  1  0
 18 20  1  0
 20 21  1  0
 21 22  1  0
 21 36  1  0
 22 23  1  0
 22 27  1  0
 23 24  1  0
 24 25  1  0
 25 26  1  0
 25 28  1  0
 26 27  1  0
 28 29  1  0
 29 30  1  0
 29 35  1  0
 30 31  1  0
 31 32  1  0
 32 33  1  0
 32 34  1  0
 34 35  1  0
  1 38  1  0
  1 39  1  0
  2 40  1  0
  2 41  1  0
  3 42  1  1
  4 43  1  0
  4 44  1  0
  5 45  1  0
  6 46  1  0
  6 47  1  0
  7 48  1  0
  8 49  1  0
  8 50  1  0
  9 51  1  0
  9 52  1  0
 10 53  1  0
 11 54  1  0
 12 55  1  0
 13 56  1  0
 14 57  1  6
 15 58  1  1
 16 59  1  0
 16 60  1  0
 17 61  1  0
 17 62  1  0
 18 63  1  0
 19 64  1  0
 19 65  1  0
 20 66  1  0
 21 67  1  0
 22 68  1  0
 23 69  1  0
 23 70  1  0
 24 71  1  0
 24 72  1  0
 25 73  1  0
 26 74  1  0
 26 75  1  0
 27 76  1  0
 27 77  1  0
 28 78  1  0
 28 79  1  0
 30 80  1  0
 30 81  1  0
 31 82  1  0
 31 83  1  0
 33 84  1  0
 33 85  1  0
 33 86  1  0
 34 87  1  0
 34 88  1  0
 35 89  1  0
 35 90  1  0
 36 91  1  0
 37 92  1  0
 37 93  1  0
 37 94  1  0
M  END
$$$$
SRC-ABL TYROSINE KINASE ANCESTOR
     RDKit          3D

 94 98  0  0  0  0  0  0  0  0999 V2000
    0.0756   -5.4324   -0.0043 C   0  0  0  0  0  0  0  0  0  0  0  0
    1.2044   -5.3254    0.9926 C   0  0  0  0  0  0  0  0  0  0  0  0
    1.6863   -3.9334    1.2340 C   0  0  1  0  0  0  0  0  0  0  0  0
    1.4140   -3.0659    0.0258 C   0  0  0  0  0  0  0  0  0  0  0  0
    1.5792   -3.8929   -1.1563 N   0  0  0  0  0  0  0  0  0  0  0  0
    0.3784   -4.6998   -1.2860 C   0  0  0  0  0  0  0  0  0  0  0  0
    1.1187   -3.3006    2.5009 C   0  0  0  0  0  0  0  0  0  0  0  0
    1.7357   -1.9202    2.6026 C   0  0  0  0  0  0  0  0  0  0  0  0
    1.0539   -1.1934    3.7507 C   0  0  0  0  0  0  0  0  0  0  0  0
   -0.3558   -1.1435    3.5378 N   0  0  0  0  0  0  0  0  0  0  0  0
   -1.0037   -2.3824    3.2580 C   0  0  0  0  0  0  0  0  0  0  0  0
   -0.2985   -3.2749    2.3780 N   0  0  0  0  0  0  0  0  0  0  0  0
   -2.3136   -2.1515    2.7385 N   0  0  0  0  0  0  0  0  0  0  0  0
   -2.3939   -1.5815    1.4533 C   0  0  1  0  0  0  0  0  0  0  0  0
   -3.8417   -1.4344    0.9974 C   0  0  1  0  0  0  0  0  0  0  0  0
   -4.4733   -0.3670    1.8228 C   0  0  0  0  0  0  0  0  0  0  0  0
   -3.8145    0.9811    1.7201 C   0  0  0  0  0  0  0  0  0  0  0  0
   -2.3170    0.9112    1.8444 C   0  0  0  0  0  0  0  0  0  0  0  0
   -1.7258   -0.2917    1.1826 C   0  0  0  0  0  0  0  0  0  0  0  0
   -1.7760    2.0889    1.1994 N   0  0  0  0  0  0  0  0  0  0  0  0
   -0.3569    2.2126    1.2531 C   0  0  0  0  0  0  0  0  0  0  0  0
    0.0174    3.5227    0.5406 C   0  0  0  0  0  0  0  0  0  0  0  0
    1.5199    3.7096    0.5692 C   0  0  0  0  0  0  0  0  0  0  0  0
    2.2232    2.7182   -0.3333 C   0  0  0  0  0  0  0  0  0  0  0  0
    1.4773    2.5617   -1.6509 C   0  0  0  0  0  0  0  0  0  0  0  0
    0.5989    3.7642   -1.8219 C   0  0  0  0  0  0  0  0  0  0  0  0
   -0.5598    3.6205   -0.8321 C   0  0  0  0  0  0  0  0  0  0  0  0
    2.3898    2.2863   -2.7986 C   0  0  0  0  0  0  0  0  0  0  0  0
    1.7251    2.1550   -4.0408 N   0  0  0  0  0  0  0  0  0  0  0  0
    2.5769    1.8845   -5.1733 C   0  0  0  0  0  0  0  0  0  0  0  0
    1.7886    1.6431   -6.4357 C   0  0  0  0  0  0  0  0  0  0  0  0
    0.5001    2.2884   -6.4203 N   0  0  0  0  0  0  0  0  0  0  0  0
    0.6007    3.7257   -6.5703 C   0  0  0  0  0  0  0  0  0  0  0  0
   -0.3032    1.9147   -5.2822 C   0  0  0  0  0  0  0  0  0  0  0  0
    0.5129    1.4338   -4.0977 C   0  0  0  0  0  0  0  0  0  0  0  0
    0.0411    2.3812    2.5889 O   0  0  0  0  0  0  0  0  0  0  0  0
   -3.8059   -1.0783   -0.4733 C   0  0  0  0  0  0  0  0  0  0  0  0
   -0.9178   -5.1757    0.4232 H   0  0  0  0  0  0  0  0  0  0  0  0
    0.0058   -6.5272   -0.2795 H   0  0  0  0  0  0  0  0  0  0  0  0
    0.8880   -5.8578    1.9175 H   0  0  0  0  0  0  0  0  0  0  0  0
    2.0213   -5.9838    0.5678 H   0  0  0  0  0  0  0  0  0  0  0  0
    2.8125   -3.9968    1.3022 H   0  0  0  0  0  0  0  0  0  0  0  0
    0.3781   -2.6995    0.0593 H   0  0  0  0  0  0  0  0  0  0  0  0
    2.1869   -2.2694   -0.0129 H   0  0  0  0  0  0  0  0  0  0  0  0
    1.7090   -3.2570   -1.9765 H   0  0  0  0  0  0  0  0  0  0  0  0
    0.4410   -5.3705   -2.1562 H   0  0  0  0  0  0  0  0  0  0  0  0
   -0.4729   -3.9898   -1.4523 H   0  0  0  0  0  0  0  0  0  0  0  0
    1.4189   -3.9234    3.3678 H   0  0  0  0  0  0  0  0  0  0  0  0
    2.8048   -2.0143    2.8411 H   0  0  0  0  0  0  0  0  0  0  0  0
    1.5288   -1.3840    1.6745 H   0  0  0  0  0  0  0  0  0  0  0  0
    1.4238   -0.1396    3.7143 H   0  0  0  0  0  0  0  0  0  0  0  0
    1.3547   -1.6014    4.7286 H   0  0  0  0  0  0  0  0  0  0  0  0
   -0.7922   -0.7420    4.4015 H   0  0  0  0  0  0  0  0  0  0  0  0
   -1.0727   -2.9422    4.2447 H   0  0  0  0  0  0  0  0  0  0  0  0
   -0.6276   -4.2623    2.6081 H   0  0  0  0  0  0  0  0  0  0  0  0
   -2.8969   -1.6542    3.4434 H   0  0  0  0  0  0  0  0  0  0  0  0
   -1.9693   -2.3164    0.6897 H   0  0  0  0  0  0  0  0  0  0  0  0
   -4.4033   -2.3756    1.1715 H   0  0  0  0  0  0  0  0  0  0  0  0
   -5.5175   -0.2309    1.4159 H   0  0  0  0  0  0  0  0  0  0  0  0
   -4.6179   -0.7298    2.8511 H   0  0  0  0  0  0  0  0  0  0  0  0
   -4.1238    1.4674    0.7735 H   0  0  0  0  0  0  0  0  0  0  0  0
   -4.1953    1.6122    2.5455 H   0  0  0  0  0  0  0  0  0  0  0  0
   -2.0241    0.9698    2.9060 H   0  0  0  0  0  0  0  0  0  0  0  0
   -0.6560   -0.3553    1.4255 H   0  0  0  0  0  0  0  0  0  0  0  0
   -1.7358   -0.1305    0.0614 H   0  0  0  0  0  0  0  0  0  0  0  0
   -2.2992    2.9545    1.3480 H   0  0  0  0  0  0  0  0  0  0  0  0
    0.1967    1.3678    0.8436 H   0  0  0  0  0  0  0  0  0  0  0  0
   -0.4200    4.3305    1.1631 H   0  0  0  0  0  0  0  0  0  0  0  0
    1.8123    4.7238    0.3060 H   0  0  0  0  0  0  0  0  0  0  0  0
    1.8477    3.4932    1.6076 H   0  0  0  0  0  0  0  0  0  0  0  0
    2.3984    1.7632    0.1814 H   0  0  0  0  0  0  0  0  0  0  0  0
    3.2141    3.1514   -0.5759 H   0  0  0  0  0  0  0  0  0  0  0  0
    0.7915    1.6754   -1.4740 H   0  0  0  0  0  0  0  0  0  0  0  0
    1.1380    4.7216   -1.6625 H   0  0  0  0  0  0  0  0  0  0  0  0
    0.1569    3.8463   -2.8396 H   0  0  0  0  0  0  0  0  0  0  0  0
   -1.0851    2.6810   -1.0876 H   0  0  0  0  0  0  0  0  0  0  0  0
   -1.2727    4.4663   -0.9486 H   0  0  0  0  0  0  0  0  0  0  0  0
    3.1487    3.1074   -2.8072 H   0  0  0  0  0  0  0  0  0  0  0  0
    2.9905    1.3506   -2.6283 H   0  0  0  0  0  0  0  0  0  0  0  0
    3.1249    0.9408   -4.9587 H   0  0  0  0  0  0  0  0  0  0  0  0
    3.3322    2.6840   -5.2661 H   0  0  0  0  0  0  0  0  0  0  0  0
    2.3720    2.0814   -7.2749 H   0  0  0  0  0  0  0  0  0  0  0  0
    1.6355    0.5743   -6.6756 H   0  0  0  0  0  0  0  0  0  0  0  0
    1.2576    4.1704   -5.7963 H   0  0  0  0  0  0  0  0  0  0  0  0
    1.0719    3.9247   -7.5542 H   0  0  0  0  0  0  0  0  0  0  0  0
   -0.4128    4.1465   -6.5971 H   0  0  0  0  0  0  0  0  0  0  0  0
   -0.9608    2.7767   -4.9909 H   0  0  0  0  0  0  0  0  0  0  0  0
   -0.9718    1.0907   -5.5895 H   0  0  0  0  0  0  0  0  0  0  0  0
   -0.1148    1.4981   -3.2159 H   0  0  0  0  0  0  0  0  0  0  0  0
    0.7421    0.3625   -4.2728 H   0  0  0  0  0  0  0  0  0  0  0  0
   -0.5336    3.0896    3.0082 H   0  0  0  0  0  0  0  0  0  0  0  0
   -4.7287   -1.4584   -0.9666 H   0  0  0  0  0  0  0  0  0  0  0  0
   -3.7170    0.0011   -0.6498 H   0  0  0  0  0  0  0  0  0  0  0  0
   -2.9510   -1.6383   -0.9373 H   0  0  0  0  0  0  0  0  0  0  0  0
  1  2  1  0
  1  6  1  0
  2  3  1  0
  3  4  1  0
  3  7  1  0
  4  5  1  0
  5  6  1  0
  7  8  1  0
  7 12  1  0
  8  9  1  0
  9 10  1  0
 10 11  1  0
 11 12  1  0
 11 13  1  0
 13 14  1  0
 14 15  1  0
 14 19  1  0
 15 16  1  0
 15 37  1  0
 16 17  1  0
 17 18  1  0
 18 19  1  0
 18 20  1  0
 20 21  1  0
 21 22  1  0
 21 36  1  0
 22 23  1  0
 22 27  1  0
 23 24  1  0
 24 25  1  0
 25 26  1  0
 25 28  1  0
 26 27  1  0
 28 29  1  0
 29 30  1  0
 29 35  1  0
 30 31  1  0
 31 32  1  0
 32 33  1  0
 32 34  1  0
 34 35  1  0
  1 38  1  0
  1 39  1  0
  2 40  1  0
  2 41  1  0
  3 42  1  1
  4 43  1  0
  4 44  1  0
  5 45  1  0
  6 46  1  0
  6 47  1  0
  7 48  1  0
  8 49  1  0
  8 50  1  0
  9 51  1  0
  9 52  1  0
 10 53  1  0
 11 54  1  0
 12 55  1  0
 13 56  1  0
 14 57  1  6
 15 58  1  6
 16 59  1  0
 16 60  1  0
 17 61  1  0
 17 62  1  0
 18 63  1  0
 19 64  1  0
 19 65  1  0
 20 66  1  0
 21 67  1  0
 22 68  1  0
 23 69  1  0
 23 70  1  0
 24 71  1  0
 24 72  1  0
 25 73  1  0
 26 74  1  0
 26 75  1  0
 27 76  1  0
 27 77  1  0
 28 78  1  0
 28 79  1  0
 30 80  1  0
 30 81  1  0
 31 82  1  0
 31 83  1  0
 33 84  1  0
 33 85  1  0
 33 86  1  0
 34 87  1  0
 34 88  1  0
 35 89  1  0
 35 90  1  0
 36 91  1  0
 37 92  1  0
 37 93  1  0
 37 94  1  0
M  END
$$$$
SRC-ABL TYROSINE KINASE ANCESTOR
     RDKit          3D

 94 98  0  0  0  0  0  0  0  0999 V2000
    1.2116    1.4062   -5.6565 C   0  0  0  0  0  0  0  0  0  0  0  0
    2.4366    0.8971   -4.9868 C   0  0  0  0  0  0  0  0  0  0  0  0
    2.3058    0.6323   -3.5095 C   0  0  1  0  0  0  0  0  0  0  0  0
    1.2616    1.4453   -2.8204 C   0  0  0  0  0  0  0  0  0  0  0  0
    0.0275    1.5789   -3.5689 N   0  0  0  0  0  0  0  0  0  0  0  0
    0.3235    2.2639   -4.7954 C   0  0  0  0  0  0  0  0  0  0  0  0
    2.1473   -0.8534   -3.2200 C   0  0  0  0  0  0  0  0  0  0  0  0
    0.9169   -1.3734   -3.9050 C   0  0  0  0  0  0  0  0  0  0  0  0
    0.6340   -2.7866   -3.5048 C   0  0  0  0  0  0  0  0  0  0  0  0
    1.2235   -3.1181   -2.2387 N   0  0  0  0  0  0  0  0  0  0  0  0
    1.1459   -2.0015   -1.3574 C   0  0  0  0  0  0  0  0  0  0  0  0
    2.1704   -1.0426   -1.7973 N   0  0  0  0  0  0  0  0  0  0  0  0
    1.1914   -2.2305    0.0371 N   0  0  0  0  0  0  0  0  0  0  0  0
    0.0653   -2.7661    0.6631 C   0  0  1  0  0  0  0  0  0  0  0  0
   -0.2104   -4.2032    0.7892 C   0  0  1  0  0  0  0  0  0  0  0  0
   -1.6647   -4.3350    1.2316 C   0  0  0  0  0  0  0  0  0  0  0  0
   -2.3188   -3.0594    1.6146 C   0  0  0  0  0  0  0  0  0  0  0  0
   -1.5007   -2.1395    2.4421 C   0  0  0  0  0  0  0  0  0  0  0  0
   -0.0055   -2.2653    2.1447 C   0  0  0  0  0  0  0  0  0  0  0  0
   -1.7591   -0.7231    2.1496 N   0  0  0  0  0  0  0  0  0  0  0  0
   -3.1141   -0.3278    2.1987 C   0  0  0  0  0  0  0  0  0  0  0  0
   -3.2813    1.1530    1.8196 C   0  0  0  0  0  0  0  0  0  0  0  0
   -2.5225    1.9797    2.8396 C   0  0  0  0  0  0  0  0  0  0  0  0
   -2.6435    3.4615    2.4553 C   0  0  0  0  0  0  0  0  0  0  0  0
   -1.9342    3.7209    1.1731 C   0  0  0  0  0  0  0  0  0  0  0  0
   -2.1280    2.6722    0.1194 C   0  0  0  0  0  0  0  0  0  0  0  0
   -2.5007    1.3165    0.5269 C   0  0  0  0  0  0  0  0  0  0  0  0
   -0.5378    4.2550    1.2700 C   0  0  0  0  0  0  0  0  0  0  0  0
    0.4174    3.4755    1.9879 N   0  0  0  0  0  0  0  0  0  0  0  0
    1.7409    4.0491    1.5891 C   0  0  0  0  0  0  0  0  0  0  0  0
    2.8284    3.1196    2.1096 C   0  0  0  0  0  0  0  0  0  0  0  0
    2.7321    3.1300    3.5339 N   0  0  0  0  0  0  0  0  0  0  0  0
    2.5841    1.8353    4.1163 C   0  0  0  0  0  0  0  0  0  0  0  0
    1.7243    4.0108    4.0291 C   0  0  0  0  0  0  0  0  0  0  0  0
    0.3678    3.8671    3.4159 C   0  0  0  0  0  0  0  0  0  0  0  0
   -3.5532   -0.4952    3.5310 O   0  0  0  0  0  0  0  0  0  0  0  0
    0.1195   -5.1216   -0.3186 C   0  0  0  0  0  0  0  0  0  0  0  0
    0.5758    0.6163   -6.1401 H   0  0  0  0  0  0  0  0  0  0  0  0
    1.5233    2.0480   -6.5205 H   0  0  0  0  0  0  0  0  0  0  0  0
    2.6889   -0.1012   -5.4515 H   0  0  0  0  0  0  0  0  0  0  0  0
    3.3252    1.5403   -5.2001 H   0  0  0  0  0  0  0  0  0  0  0  0
    3.2964    0.8991   -3.0484 H   0  0  0  0  0  0  0  0  0  0  0  0
    1.6160    2.4410   -2.5195 H   0  0  0  0  0  0  0  0  0  0  0  0
    0.9735    0.8574   -1.8994 H   0  0  0  0  0  0  0  0  0  0  0  0
   -0.6596    2.0721   -2.9892 H   0  0  0  0  0  0  0  0  0  0  0  0
   -0.6278    2.3807   -5.3452 H   0  0  0  0  0  0  0  0  0  0  0  0
    0.7884    3.2462   -4.6465 H   0  0  0  0  0  0  0  0  0  0  0  0
    3.0316   -1.3297   -3.7145 H   0  0  0  0  0  0  0  0  0  0  0  0
    0.0028   -0.7911   -3.7149 H   0  0  0  0  0  0  0  0  0  0  0  0
    1.1611   -1.3970   -5.0025 H   0  0  0  0  0  0  0  0  0  0  0  0
    1.0011   -3.5232   -4.2788 H   0  0  0  0  0  0  0  0  0  0  0  0
   -0.4695   -3.0045   -3.4529 H   0  0  0  0  0  0  0  0  0  0  0  0
    2.2058   -3.4567   -2.3634 H   0  0  0  0  0  0  0  0  0  0  0  0
    0.1503   -1.4937   -1.6282 H   0  0  0  0  0  0  0  0  0  0  0  0
    3.0950   -1.4965   -1.5488 H   0  0  0  0  0  0  0  0  0  0  0  0
    1.3970   -1.2899    0.4924 H   0  0  0  0  0  0  0  0  0  0  0  0
   -0.9027   -2.3210    0.2012 H   0  0  0  0  0  0  0  0  0  0  0  0
    0.3612   -4.5977    1.7022 H   0  0  0  0  0  0  0  0  0  0  0  0
   -2.1943   -4.6937    0.3037 H   0  0  0  0  0  0  0  0  0  0  0  0
   -1.7752   -5.1665    1.9510 H   0  0  0  0  0  0  0  0  0  0  0  0
   -3.1966   -3.3627    2.2743 H   0  0  0  0  0  0  0  0  0  0  0  0
   -2.8131   -2.5343    0.7758 H   0  0  0  0  0  0  0  0  0  0  0  0
   -1.6668   -2.2860    3.5066 H   0  0  0  0  0  0  0  0  0  0  0  0
    0.4688   -3.0399    2.7675 H   0  0  0  0  0  0  0  0  0  0  0  0
    0.5384   -1.3263    2.2059 H   0  0  0  0  0  0  0  0  0  0  0  0
   -1.1630   -0.2048    2.8423 H   0  0  0  0  0  0  0  0  0  0  0  0
   -3.7932   -0.9589    1.6049 H   0  0  0  0  0  0  0  0  0  0  0  0
   -4.3231    1.4385    1.6842 H   0  0  0  0  0  0  0  0  0  0  0  0
   -1.4840    1.6593    2.8180 H   0  0  0  0  0  0  0  0  0  0  0  0
   -2.9204    1.8890    3.8568 H   0  0  0  0  0  0  0  0  0  0  0  0
   -3.7425    3.5973    2.2786 H   0  0  0  0  0  0  0  0  0  0  0  0
   -2.2705    4.0575    3.2664 H   0  0  0  0  0  0  0  0  0  0  0  0
   -2.5090    4.6292    0.7379 H   0  0  0  0  0  0  0  0  0  0  0  0
   -1.1205    2.5924   -0.4050 H   0  0  0  0  0  0  0  0  0  0  0  0
   -2.7939    3.0306   -0.7208 H   0  0  0  0  0  0  0  0  0  0  0  0
   -3.1200    0.8572   -0.2969 H   0  0  0  0  0  0  0  0  0  0  0  0
   -1.5702    0.6900    0.6710 H   0  0  0  0  0  0  0  0  0  0  0  0
   -0.6082    5.2634    1.7714 H   0  0  0  0  0  0  0  0  0  0  0  0
   -0.2212    4.4656    0.2032 H   0  0  0  0  0  0  0  0  0  0  0  0
    1.8207    4.1121    0.4900 H   0  0  0  0  0  0  0  0  0  0  0  0
    1.7980    5.0561    2.0057 H   0  0  0  0  0  0  0  0  0  0  0  0
    3.7793    3.4561    1.6959 H   0  0  0  0  0  0  0  0  0  0  0  0
    2.5907    2.1108    1.6771 H   0  0  0  0  0  0  0  0  0  0  0  0
    2.7348    1.9667    5.2262 H   0  0  0  0  0  0  0  0  0  0  0  0
    1.5974    1.3820    3.9189 H   0  0  0  0  0  0  0  0  0  0  0  0
    3.4057    1.1235    3.8215 H   0  0  0  0  0  0  0  0  0  0  0  0
    1.6206    3.7781    5.1327 H   0  0  0  0  0  0  0  0  0  0  0  0
    2.0437    5.0784    4.0222 H   0  0  0  0  0  0  0  0  0  0  0  0
   -0.0992    4.8882    3.4517 H   0  0  0  0  0  0  0  0  0  0  0  0
   -0.2035    3.1744    4.0317 H   0  0  0  0  0  0  0  0  0  0  0  0
   -2.8459   -0.3093    4.1909 H   0  0  0  0  0  0  0  0  0  0  0  0
   -0.0978   -6.1808    0.0501 H   0  0  0  0  0  0  0  0  0  0  0  0
    1.2113   -5.1226   -0.4911 H   0  0  0  0  0  0  0  0  0  0  0  0
   -0.4331   -4.9293   -1.2362 H   0  0  0  0  0  0  0  0  0  0  0  0
  1  2  1  0
  1  6  1  0
  2  3  1  0
  3  4  1  0
  3  7  1  0
  4  5  1  0
  5  6  1  0
  7  8  1  0
  7 12  1  0
  8  9  1  0
  9 10  1  0
 10 11  1  0
 11 12  1  0
 11 13  1  0
 13 14  1  0
 14 15  1  0
 14 19  1  0
 15 16  1  0
 15 37  1  0
 16 17  1  0
 17 18  1  0
 18 19  1  0
 18 20  1  0
 20 21  1  0
 21 22  1  0
 21 36  1  0
 22 23  1  0
 22 27  1  0
 23 24  1  0
 24 25  1  0
 25 26  1  0
 25 28  1  0
 26 27  1  0
 28 29  1  0
 29 30  1  0
 29 35  1  0
 30 31  1  0
 31 32  1  0
 32 33  1  0
 32 34  1  0
 34 35  1  0
  1 38  1  0
  1 39  1  0
  2 40  1  0
  2 41  1  0
  3 42  1  1
  4 43  1  0
  4 44  1  0
  5 45  1  0
  6 46  1  0
  6 47  1  0
  7 48  1  0
  8 49  1  0
  8 50  1  0
  9 51  1  0
  9 52  1  0
 10 53  1  0
 11 54  1  0
 12 55  1  0
 13 56  1  0
 14 57  1  6
 15 58  1  1
 16 59  1  0
 16 60  1  0
 17 61  1  0
 17 62  1  0
 18 63  1  0
 19 64  1  0
 19 65  1  0
 20 66  1  0
 21 67  1  0
 22 68  1  0
 23 69  1  0
 23 70  1  0
 24 71  1  0
 24 72  1  0
 25 73  1  0
 26 74  1  0
 26 75  1  0
 27 76  1  0
 27 77  1  0
 28 78  1  0
 28 79  1  0
 30 80  1  0
 30 81  1  0
 31 82  1  0
 31 83  1  0
 33 84  1  0
 33 85  1  0
 33 86  1  0
 34 87  1  0
 34 88  1  0
 35 89  1  0
 35 90  1  0
 36 91  1  0
 37 92  1  0
 37 93  1  0
 37 94  1  0
M  END
$$$$
SRC-ABL TYROSINE KINASE ANCESTOR
     RDKit          3D

 94 98  0  0  0  0  0  0  0  0999 V2000
    2.8365   -3.3154    0.1406 C   0  0  0  0  0  0  0  0  0  0  0  0
    1.9509   -2.3653    0.9516 C   0  0  0  0  0  0  0  0  0  0  0  0
    2.1536   -2.7560    2.3899 C   0  0  1  0  0  0  0  0  0  0  0  0
    3.5902   -2.4296    2.7500 C   0  0  0  0  0  0  0  0  0  0  0  0
    4.4085   -3.4010    2.0464 N   0  0  0  0  0  0  0  0  0  0  0  0
    4.2468   -3.3291    0.6282 C   0  0  0  0  0  0  0  0  0  0  0  0
    1.1732   -2.1213    3.3307 C   0  0  0  0  0  0  0  0  0  0  0  0
    1.2504   -0.6123    3.3053 C   0  0  0  0  0  0  0  0  0  0  0  0
    0.1912   -0.1435    4.3021 C   0  0  0  0  0  0  0  0  0  0  0  0
   -1.1029   -0.4985    3.7023 N   0  0  0  0  0  0  0  0  0  0  0  0
   -1.2209   -1.9070    3.6656 C   0  0  0  0  0  0  0  0  0  0  0  0
   -0.1399   -2.5973    2.9746 N   0  0  0  0  0  0  0  0  0  0  0  0
   -2.4225   -2.3302    3.0145 N   0  0  0  0  0  0  0  0  0  0  0  0
   -2.4159   -2.0028    1.6130 C   0  0  1  0  0  0  0  0  0  0  0  0
   -3.4586   -2.9019    0.8984 C   0  0  1  0  0  0  0  0  0  0  0  0
   -3.8956   -2.3019   -0.3913 C   0  0  0  0  0  0  0  0  0  0  0  0
   -2.8742   -1.2782   -0.9114 C   0  0  0  0  0  0  0  0  0  0  0  0
   -2.7569   -0.1018   -0.0241 C   0  0  0  0  0  0  0  0  0  0  0  0
   -2.9738   -0.6167    1.4267 C   0  0  0  0  0  0  0  0  0  0  0  0
   -3.6836    0.9300   -0.1802 N   0  0  0  0  0  0  0  0  0  0  0  0
   -3.9338    1.5968   -1.3632 C   0  0  0  0  0  0  0  0  0  0  0  0
   -2.8274    2.3382   -2.0500 C   0  0  0  0  0  0  0  0  0  0  0  0
   -2.1820    3.4228   -1.2615 C   0  0  0  0  0  0  0  0  0  0  0  0
   -0.6547    3.3020   -1.1818 C   0  0  0  0  0  0  0  0  0  0  0  0
   -0.0148    3.1240   -2.5023 C   0  0  0  0  0  0  0  0  0  0  0  0
   -0.9414    2.4655   -3.5322 C   0  0  0  0  0  0  0  0  0  0  0  0
   -1.8429    1.4792   -2.8003 C   0  0  0  0  0  0  0  0  0  0  0  0
    1.2799    2.3960   -2.4431 C   0  0  0  0  0  0  0  0  0  0  0  0
    2.2906    3.0353   -1.6712 N   0  0  0  0  0  0  0  0  0  0  0  0
    3.5928    2.3523   -1.9691 C   0  0  0  0  0  0  0  0  0  0  0  0
    4.6520    3.4144   -1.7078 C   0  0  0  0  0  0  0  0  0  0  0  0
    4.3351    4.0821   -0.4376 N   0  0  0  0  0  0  0  0  0  0  0  0
    3.6120    5.3148   -0.6964 C   0  0  0  0  0  0  0  0  0  0  0  0
    3.5438    3.1788    0.3909 C   0  0  0  0  0  0  0  0  0  0  0  0
    2.1601    2.9218   -0.2307 C   0  0  0  0  0  0  0  0  0  0  0  0
   -4.9094    2.5958   -1.0725 O   0  0  0  0  0  0  0  0  0  0  0  0
   -2.9305   -4.2819    0.7036 C   0  0  0  0  0  0  0  0  0  0  0  0
    2.3682   -4.3394    0.2049 H   0  0  0  0  0  0  0  0  0  0  0  0
    2.8257   -2.9799   -0.9072 H   0  0  0  0  0  0  0  0  0  0  0  0
    0.8954   -2.5967    0.6206 H   0  0  0  0  0  0  0  0  0  0  0  0
    2.1694   -1.3227    0.7305 H   0  0  0  0  0  0  0  0  0  0  0  0
    2.0923   -3.8716    2.4097 H   0  0  0  0  0  0  0  0  0  0  0  0
    3.9004   -1.4232    2.4192 H   0  0  0  0  0  0  0  0  0  0  0  0
    3.7670   -2.5887    3.8381 H   0  0  0  0  0  0  0  0  0  0  0  0
    4.0956   -4.3324    2.3941 H   0  0  0  0  0  0  0  0  0  0  0  0
    4.7865   -2.4590    0.1932 H   0  0  0  0  0  0  0  0  0  0  0  0
    4.7134   -4.2711    0.2162 H   0  0  0  0  0  0  0  0  0  0  0  0
    1.4338   -2.4410    4.3587 H   0  0  0  0  0  0  0  0  0  0  0  0
    0.9185   -0.2173    2.3218 H   0  0  0  0  0  0  0  0  0  0  0  0
    2.2516   -0.3015    3.5967 H   0  0  0  0  0  0  0  0  0  0  0  0
    0.2536    0.9327    4.5043 H   0  0  0  0  0  0  0  0  0  0  0  0
    0.3449   -0.7436    5.2208 H   0  0  0  0  0  0  0  0  0  0  0  0
   -1.8578   -0.1475    4.3578 H   0  0  0  0  0  0  0  0  0  0  0  0
   -1.2881   -2.2717    4.7314 H   0  0  0  0  0  0  0  0  0  0  0  0
   -0.2288   -3.5999    3.2538 H   0  0  0  0  0  0  0  0  0  0  0  0
   -2.5559   -3.3525    3.1177 H   0  0  0  0  0  0  0  0  0  0  0  0
   -1.4812   -2.2032    1.0836 H   0  0  0  0  0  0  0  0  0  0  0  0
   -4.3292   -2.9452    1.5818 H   0  0  0  0  0  0  0  0  0  0  0  0
   -4.9182   -1.8686   -0.3851 H   0  0  0  0  0  0  0  0  0  0  0  0
   -3.9201   -3.0999   -1.1627 H   0  0  0  0  0  0  0  0  0  0  0  0
   -1.9065   -1.8497   -0.9310 H   0  0  0  0  0  0  0  0  0  0  0  0
   -3.1730   -1.0853   -1.9540 H   0  0  0  0  0  0  0  0  0  0  0  0
   -1.7239    0.2956    0.0201 H   0  0  0  0  0  0  0  0  0  0  0  0
   -2.5426    0.0846    2.1172 H   0  0  0  0  0  0  0  0  0  0  0  0
   -4.0890   -0.6905    1.5713 H   0  0  0  0  0  0  0  0  0  0  0  0
   -4.3127    1.1244    0.6242 H   0  0  0  0  0  0  0  0  0  0  0  0
   -4.4331    1.0011   -2.1626 H   0  0  0  0  0  0  0  0  0  0  0  0
   -3.3721    2.8984   -2.9008 H   0  0  0  0  0  0  0  0  0  0  0  0
   -2.3938    4.4456   -1.6288 H   0  0  0  0  0  0  0  0  0  0  0  0
   -2.5120    3.4458   -0.1837 H   0  0  0  0  0  0  0  0  0  0  0  0
   -0.3544    4.3309   -0.8139 H   0  0  0  0  0  0  0  0  0  0  0  0
   -0.4252    2.5474   -0.4324 H   0  0  0  0  0  0  0  0  0  0  0  0
    0.1725    4.1522   -2.9806 H   0  0  0  0  0  0  0  0  0  0  0  0
   -0.3257    1.9141   -4.2350 H   0  0  0  0  0  0  0  0  0  0  0  0
   -1.5571    3.2320   -4.0277 H   0  0  0  0  0  0  0  0  0  0  0  0
   -2.3363    0.8747   -3.5589 H   0  0  0  0  0  0  0  0  0  0  0  0
   -1.1881    0.8618   -2.1952 H   0  0  0  0  0  0  0  0  0  0  0  0
    1.6610    2.1563   -3.4871 H   0  0  0  0  0  0  0  0  0  0  0  0
    1.0810    1.3925   -1.9331 H   0  0  0  0  0  0  0  0  0  0  0  0
    3.6690    1.4912   -1.3187 H   0  0  0  0  0  0  0  0  0  0  0  0
    3.5249    2.0755   -3.0381 H   0  0  0  0  0  0  0  0  0  0  0  0
    4.5543    4.1719   -2.5102 H   0  0  0  0  0  0  0  0  0  0  0  0
    5.6287    2.9313   -1.6522 H   0  0  0  0  0  0  0  0  0  0  0  0
    4.1701    6.1925   -0.2767 H   0  0  0  0  0  0  0  0  0  0  0  0
    2.5979    5.3369   -0.2579 H   0  0  0  0  0  0  0  0  0  0  0  0
    3.5696    5.4732   -1.7899 H   0  0  0  0  0  0  0  0  0  0  0  0
    3.4327    3.7150    1.3755 H   0  0  0  0  0  0  0  0  0  0  0  0
    4.0737    2.2394    0.4828 H   0  0  0  0  0  0  0  0  0  0  0  0
    1.5044    3.6805    0.1947 H   0  0  0  0  0  0  0  0  0  0  0  0
    1.8170    1.9142    0.0084 H   0  0  0  0  0  0  0  0  0  0  0  0
   -4.4444    3.4487   -0.8154 H   0  0  0  0  0  0  0  0  0  0  0  0
   -3.8169   -4.9846    0.6791 H   0  0  0  0  0  0  0  0  0  0  0  0
   -2.2592   -4.6597    1.4753 H   0  0  0  0  0  0  0  0  0  0  0  0
   -2.4611   -4.4288   -0.3002 H   0  0  0  0  0  0  0  0  0  0  0  0
  1  2  1  0
  1  6  1  0
  2  3  1  0
  3  4  1  0
  3  7  1  0
  4  5  1  0
  5  6  1  0
  7  8  1  0
  7 12  1  0
  8  9  1  0
  9 10  1  0
 10 11  1  0
 11 12  1  0
 11 13  1  0
 13 14  1  0
 14 15  1  0
 14 19  1  0
 15 16  1  0
 15 37  1  0
 16 17  1  0
 17 18  1  0
 18 19  1  0
 18 20  1  0
 20 21  1  0
 21 22  1  0
 21 36  1  0
 22 23  1  0
 22 27  1  0
 23 24  1  0
 24 25  1  0
 25 26  1  0
 25 28  1  0
 26 27  1  0
 28 29  1  0
 29 30  1  0
 29 35  1  0
 30 31  1  0
 31 32  1  0
 32 33  1  0
 32 34  1  0
 34 35  1  0
  1 38  1  0
  1 39  1  0
  2 40  1  0
  2 41  1  0
  3 42  1  6
  4 43  1  0
  4 44  1  0
  5 45  1  0
  6 46  1  0
  6 47  1  0
  7 48  1  0
  8 49  1  0
  8 50  1  0
  9 51  1  0
  9 52  1  0
 10 53  1  0
 11 54  1  0
 12 55  1  0
 13 56  1  0
 14 57  1  6
 15 58  1  1
 16 59  1  0
 16 60  1  0
 17 61  1  0
 17 62  1  0
 18 63  1  0
 19 64  1  0
 19 65  1  0
 20 66  1  0
 21 67  1  0
 22 68  1  0
 23 69  1  0
 23 70  1  0
 24 71  1  0
 24 72  1  0
 25 73  1  0
 26 74  1  0
 26 75  1  0
 27 76  1  0
 27 77  1  0
 28 78  1  0
 28 79  1  0
 30 80  1  0
 30 81  1  0
 31 82  1  0
 31 83  1  0
 33 84  1  0
 33 85  1  0
 33 86  1  0
 34 87  1  0
 34 88  1  0
 35 89  1  0
 35 90  1  0
 36 91  1  0
 37 92  1  0
 37 93  1  0
 37 94  1  0
M  END
$$$$
