./ArbAlign_Supporting-Information/Coordinates/FGG-Tripeptide/253_FGG99.xyz
 OpenBabel04142505293D

 37 37  0  0  1  0  0  0  0  0999 V2000
    1.0140   -0.0060   -1.1630 O   0  0  0  0  0  0  0  0  0  0  0  0
    2.0260    0.0380   -0.5020 C   0  0  0  0  0  0  0  0  0  0  0  0
    3.1470   -0.6420   -0.8100 O   0  0  0  0  0  0  0  0  0  0  0  0
    2.9310   -1.1600   -1.6000 H   0  0  0  0  0  0  0  0  0  0  0  0
    2.2190    0.8500    0.7630 C   0  0  0  0  0  0  0  0  0  0  0  0
    3.1040    1.4700    0.6300 H   0  0  0  0  0  0  0  0  0  0  0  0
    2.4060    0.1640    1.5860 H   0  0  0  0  0  0  0  0  0  0  0  0
    1.0780    1.6730    1.0450 N   0  0  0  0  0  0  0  0  0  0  0  0
    0.2700    1.2450    1.4800 H   0  0  0  0  0  0  0  0  0  0  0  0
    0.8220    2.7050    0.1860 C   0  0  0  0  0  0  0  0  0  0  0  0
    1.6580    3.1660   -0.5770 O   0  0  0  0  0  0  0  0  0  0  0  0
   -0.6240    3.1780    0.2120 C   0  0  0  0  0  0  0  0  0  0  0  0
   -0.6950    4.1010   -0.3540 H   0  0  0  0  0  0  0  0  0  0  0  0
   -0.9700    3.3330    1.2320 H   0  0  0  0  0  0  0  0  0  0  0  0
   -1.4600    2.1620   -0.3990 N   0  0  0  0  0  0  0  0  0  0  0  0
   -1.4550    2.0310   -1.4020 H   0  0  0  0  0  0  0  0  0  0  0  0
   -1.8890    1.0980    0.3080 C   0  0  0  0  0  0  0  0  0  0  0  0
   -1.7630    1.0010    1.5320 O   0  0  0  0  0  0  0  0  0  0  0  0
   -2.5850    0.0290   -0.5320 C   0  0  1  0  0  0  0  0  0  0  0  0
   -2.0360    0.0550   -1.8840 N   0  0  0  0  0  0  0  0  0  0  0  0
   -1.0880   -0.3110   -1.8750 H   0  0  0  0  0  0  0  0  0  0  0  0
   -2.5880   -0.5280   -2.5000 H   0  0  0  0  0  0  0  0  0  0  0  0
   -3.6310    0.3430   -0.6020 H   0  0  0  0  0  0  0  0  0  0  0  0
   -2.5660   -1.3290    0.1910 C   0  0  0  0  0  0  0  0  0  0  0  0
   -2.9820   -1.1870    1.1880 H   0  0  0  0  0  0  0  0  0  0  0  0
   -3.2300   -2.0000   -0.3570 H   0  0  0  0  0  0  0  0  0  0  0  0
   -1.2020   -1.9520    0.2860 C   0  0  0  0  0  0  0  0  0  0  0  0
   -0.7090   -2.7460   -0.7540 C   0  0  0  0  0  0  0  0  0  0  0  0
   -1.3310   -2.9310   -1.6210 H   0  0  0  0  0  0  0  0  0  0  0  0
    0.5560   -3.3270   -0.6790 C   0  0  0  0  0  0  0  0  0  0  0  0
    0.9130   -3.9470   -1.4910 H   0  0  0  0  0  0  0  0  0  0  0  0
    1.3490   -3.1270    0.4490 C   0  0  0  0  0  0  0  0  0  0  0  0
    2.3270   -3.5830    0.5170 H   0  0  0  0  0  0  0  0  0  0  0  0
    0.8640   -2.3470    1.4990 C   0  0  0  0  0  0  0  0  0  0  0  0
    1.4620   -2.2120    2.3910 H   0  0  0  0  0  0  0  0  0  0  0  0
   -0.3990   -1.7640    1.4170 C   0  0  0  0  0  0  0  0  0  0  0  0
   -0.7800   -1.1660    2.2350 H   0  0  0  0  0  0  0  0  0  0  0  0
  1  2  2  0  0  0  0
  2  5  1  0  0  0  0
  3  2  1  0  0  0  0
  4  3  1  0  0  0  0
  5  8  1  0  0  0  0
  5  7  1  0  0  0  0
  6  5  1  0  0  0  0
  8  9  1  0  0  0  0
 10 12  1  0  0  0  0
 10  8  1  0  0  0  0
 11 10  2  0  0  0  0
 12 14  1  0  0  0  0
 13 12  1  0  0  0  0
 15 12  1  0  0  0  0
 15 17  1  0  0  0  0
 16 15  1  0  0  0  0
 17 18  2  0  0  0  0
 19 23  1  6  0  0  0
 19 24  1  0  0  0  0
 19 17  1  0  0  0  0
 20 21  1  0  0  0  0
 20 19  1  0  0  0  0
 22 20  1  0  0  0  0
 24 27  1  0  0  0  0
 24 25  1  0  0  0  0
 26 24  1  0  0  0  0
 27 36  1  0  0  0  0
 28 30  1  0  0  0  0
 28 27  2  0  0  0  0
 29 28  1  0  0  0  0
 30 32  2  0  0  0  0
 31 30  1  0  0  0  0
 32 33  1  0  0  0  0
 32 34  1  0  0  0  0
 34 35  1  0  0  0  0
 36 34  2  0  0  0  0
 36 37  1  0  0  0  0
M  END
$$$$
