./ArbAlign_Supporting-Information/Coordinates/FGG-Tripeptide/255_FGG252.xyz
 OpenBabel04142505293D

 37 37  0  0  1  0  0  0  0  0999 V2000
   -2.6580   -1.2370   -0.5120 O   0  0  0  0  0  0  0  0  0  0  0  0
   -3.6980   -0.6980   -0.2100 C   0  0  0  0  0  0  0  0  0  0  0  0
   -4.9110   -1.1930   -0.5230 O   0  0  0  0  0  0  0  0  0  0  0  0
   -4.7490   -2.0120   -1.0150 H   0  0  0  0  0  0  0  0  0  0  0  0
   -3.8320    0.5930    0.5750 C   0  0  0  0  0  0  0  0  0  0  0  0
   -4.3450    0.3740    1.5100 H   0  0  0  0  0  0  0  0  0  0  0  0
   -4.4580    1.2710   -0.0010 H   0  0  0  0  0  0  0  0  0  0  0  0
   -2.5580    1.2010    0.8280 N   0  0  0  0  0  0  0  0  0  0  0  0
   -1.9490    0.7610    1.5120 H   0  0  0  0  0  0  0  0  0  0  0  0
   -1.9150    1.7760   -0.2340 C   0  0  0  0  0  0  0  0  0  0  0  0
   -2.4780    2.1010   -1.2690 O   0  0  0  0  0  0  0  0  0  0  0  0
   -0.4100    1.8830   -0.0350 C   0  0  0  0  0  0  0  0  0  0  0  0
   -0.1640    2.2360    0.9650 H   0  0  0  0  0  0  0  0  0  0  0  0
    0.0010    2.5520   -0.7830 H   0  0  0  0  0  0  0  0  0  0  0  0
    0.1500    0.5580   -0.2080 N   0  0  0  0  0  0  0  0  0  0  0  0
    0.3810    0.2050   -1.1270 H   0  0  0  0  0  0  0  0  0  0  0  0
    0.1040   -0.3590    0.7720 C   0  0  0  0  0  0  0  0  0  0  0  0
   -0.2610   -0.1160    1.9280 O   0  0  0  0  0  0  0  0  0  0  0  0
    0.5830   -1.7420    0.3690 C   0  0  1  0  0  0  0  0  0  0  0  0
    0.4540   -1.9140   -1.0750 N   0  0  0  0  0  0  0  0  0  0  0  0
   -0.5320   -1.9900   -1.3060 H   0  0  0  0  0  0  0  0  0  0  0  0
    0.8930   -2.7820   -1.3580 H   0  0  0  0  0  0  0  0  0  0  0  0
   -0.0260   -2.4400    0.9510 H   0  0  0  0  0  0  0  0  0  0  0  0
    2.0480   -1.9100    0.8140 C   0  0  0  0  0  0  0  0  0  0  0  0
    2.0590   -1.9260    1.9040 H   0  0  0  0  0  0  0  0  0  0  0  0
    2.3980   -2.8850    0.4660 H   0  0  0  0  0  0  0  0  0  0  0  0
    2.9430   -0.8150    0.3110 C   0  0  0  0  0  0  0  0  0  0  0  0
    3.5230   -0.8720   -0.9580 C   0  0  0  0  0  0  0  0  0  0  0  0
    3.3690   -1.7470   -1.5760 H   0  0  0  0  0  0  0  0  0  0  0  0
    4.2920    0.1860   -1.4390 C   0  0  0  0  0  0  0  0  0  0  0  0
    4.7350    0.1260   -2.4240 H   0  0  0  0  0  0  0  0  0  0  0  0
    4.4920    1.3190   -0.6510 C   0  0  0  0  0  0  0  0  0  0  0  0
    5.0900    2.1390   -1.0230 H   0  0  0  0  0  0  0  0  0  0  0  0
    3.9250    1.3830    0.6200 C   0  0  0  0  0  0  0  0  0  0  0  0
    4.0830    2.2550    1.2410 H   0  0  0  0  0  0  0  0  0  0  0  0
    3.1580    0.3230    1.0960 C   0  0  0  0  0  0  0  0  0  0  0  0
    2.7080    0.3780    2.0800 H   0  0  0  0  0  0  0  0  0  0  0  0
  1  2  2  0  0  0  0
  2  5  1  0  0  0  0
  3  2  1  0  0  0  0
  4  3  1  0  0  0  0
  5  8  1  0  0  0  0
  5  6  1  0  0  0  0
  7  5  1  0  0  0  0
  8  9  1  0  0  0  0
 10 12  1  0  0  0  0
 10  8  1  0  0  0  0
 11 10  2  0  0  0  0
 12 13  1  0  0  0  0
 14 12  1  0  0  0  0
 15 12  1  0  0  0  0
 15 17  1  0  0  0  0
 16 15  1  0  0  0  0
 17 18  2  0  0  0  0
 19 17  1  0  0  0  0
 19 24  1  0  0  0  0
 19 23  1  1  0  0  0
 20 19  1  0  0  0  0
 21 20  1  0  0  0  0
 22 20  1  0  0  0  0
 24 25  1  0  0  0  0
 26 24  1  0  0  0  0
 27 24  1  0  0  0  0
 27 36  1  0  0  0  0
 28 27  2  0  0  0  0
 29 28  1  0  0  0  0
 30 28  1  0  0  0  0
 30 32  2  0  0  0  0
 31 30  1  0  0  0  0
 32 34  1  0  0  0  0
 33 32  1  0  0  0  0
 34 36  2  0  0  0  0
 34 35  1  0  0  0  0
 36 37  1  0  0  0  0
M  END
$$$$
