./ArbAlign_Supporting-Information/Coordinates/FGG-Tripeptide/259_FGG380.xyz
 OpenBabel04142505293D

 37 37  0  0  1  0  0  0  0  0999 V2000
   -2.5430   -2.5930    0.7790 O   0  0  0  0  0  0  0  0  0  0  0  0
   -2.7410   -1.4380    0.4810 C   0  0  0  0  0  0  0  0  0  0  0  0
   -3.2620   -0.5600    1.3430 O   0  0  0  0  0  0  0  0  0  0  0  0
   -3.4010    0.2990    0.8750 H   0  0  0  0  0  0  0  0  0  0  0  0
   -2.4400   -0.8870   -0.9110 C   0  0  0  0  0  0  0  0  0  0  0  0
   -3.3920   -0.6530   -1.3930 H   0  0  0  0  0  0  0  0  0  0  0  0
   -1.9370   -1.6660   -1.4730 H   0  0  0  0  0  0  0  0  0  0  0  0
   -1.6000    0.2980   -0.9200 N   0  0  0  0  0  0  0  0  0  0  0  0
   -0.6550    0.2540   -1.2930 H   0  0  0  0  0  0  0  0  0  0  0  0
   -2.0670    1.5000   -0.5500 C   0  0  0  0  0  0  0  0  0  0  0  0
   -3.2010    1.6740   -0.0810 O   0  0  0  0  0  0  0  0  0  0  0  0
   -1.1010    2.6600   -0.7360 C   0  0  0  0  0  0  0  0  0  0  0  0
   -1.6020    3.5550   -0.3830 H   0  0  0  0  0  0  0  0  0  0  0  0
   -0.8700    2.7640   -1.7980 H   0  0  0  0  0  0  0  0  0  0  0  0
    0.1380    2.4830   -0.0090 N   0  0  0  0  0  0  0  0  0  0  0  0
    0.3390    3.0030    0.8330 H   0  0  0  0  0  0  0  0  0  0  0  0
    1.1440    1.7320   -0.5000 C   0  0  0  0  0  0  0  0  0  0  0  0
    1.0540    1.0830   -1.5450 O   0  0  0  0  0  0  0  0  0  0  0  0
    2.3830    1.6830    0.3750 C   0  0  1  0  0  0  0  0  0  0  0  0
    2.4860    2.8970    1.1850 N   0  0  0  0  0  0  0  0  0  0  0  0
    2.8520    3.6640    0.6320 H   0  0  0  0  0  0  0  0  0  0  0  0
    3.1390    2.7490    1.9440 H   0  0  0  0  0  0  0  0  0  0  0  0
    3.2240    1.5190   -0.3040 H   0  0  0  0  0  0  0  0  0  0  0  0
    2.2730    0.4780    1.3250 C   0  0  0  0  0  0  0  0  0  0  0  0
    3.2000    0.4370    1.9060 H   0  0  0  0  0  0  0  0  0  0  0  0
    1.4580    0.6720    2.0250 H   0  0  0  0  0  0  0  0  0  0  0  0
    2.0500   -0.8250    0.6160 C   0  0  0  0  0  0  0  0  0  0  0  0
    3.0600   -1.3840   -0.1720 C   0  0  0  0  0  0  0  0  0  0  0  0
    4.0190   -0.8850   -0.2460 H   0  0  0  0  0  0  0  0  0  0  0  0
    2.8490   -2.5740   -0.8610 C   0  0  0  0  0  0  0  0  0  0  0  0
    3.6400   -2.9930   -1.4670 H   0  0  0  0  0  0  0  0  0  0  0  0
    1.6200   -3.2250   -0.7650 C   0  0  0  0  0  0  0  0  0  0  0  0
    1.4560   -4.1540   -1.2950 H   0  0  0  0  0  0  0  0  0  0  0  0
    0.6070   -2.6860    0.0260 C   0  0  0  0  0  0  0  0  0  0  0  0
   -0.3460   -3.1870    0.1270 H   0  0  0  0  0  0  0  0  0  0  0  0
    0.8250   -1.4890    0.7090 C   0  0  0  0  0  0  0  0  0  0  0  0
    0.0400   -1.0780    1.3330 H   0  0  0  0  0  0  0  0  0  0  0  0
  2  1  2  0  0  0  0
  2  3  1  0  0  0  0
  4  3  1  0  0  0  0
  5  2  1  0  0  0  0
  6  5  1  0  0  0  0
  7  5  1  0  0  0  0
  8  5  1  0  0  0  0
  8 10  1  0  0  0  0
  9  8  1  0  0  0  0
 10 11  2  0  0  0  0
 12 10  1  0  0  0  0
 12 13  1  0  0  0  0
 12 15  1  0  0  0  0
 14 12  1  0  0  0  0
 15 16  1  0  0  0  0
 17 15  1  0  0  0  0
 17 19  1  0  0  0  0
 18 17  2  0  0  0  0
 19 23  1  6  0  0  0
 19 20  1  0  0  0  0
 19 24  1  0  0  0  0
 20 22  1  0  0  0  0
 21 20  1  0  0  0  0
 24 25  1  0  0  0  0
 24 26  1  0  0  0  0
 27 36  1  0  0  0  0
 27 24  1  0  0  0  0
 28 27  2  0  0  0  0
 29 28  1  0  0  0  0
 30 32  2  0  0  0  0
 30 28  1  0  0  0  0
 31 30  1  0  0  0  0
 32 34  1  0  0  0  0
 33 32  1  0  0  0  0
 34 35  1  0  0  0  0
 34 36  2  0  0  0  0
 36 37  1  0  0  0  0
M  END
$$$$
