./ArbAlign_Supporting-Information/Coordinates/FGG-Tripeptide/263_FGG80.xyz
 OpenBabel04142505293D

 37 37  0  0  1  0  0  0  0  0999 V2000
    3.7510   -1.4380   -0.4040 O   0  0  0  0  0  0  0  0  0  0  0  0
    3.3700   -0.3090   -0.2000 C   0  0  0  0  0  0  0  0  0  0  0  0
    3.7250    0.7190   -0.9800 O   0  0  0  0  0  0  0  0  0  0  0  0
    3.3220    1.5420   -0.6150 H   0  0  0  0  0  0  0  0  0  0  0  0
    2.4650    0.0630    0.9690 C   0  0  0  0  0  0  0  0  0  0  0  0
    2.9930    0.7740    1.6070 H   0  0  0  0  0  0  0  0  0  0  0  0
    2.2460   -0.8360    1.5310 H   0  0  0  0  0  0  0  0  0  0  0  0
    1.2120    0.6670    0.5480 N   0  0  0  0  0  0  0  0  0  0  0  0
    0.3630    0.1200    0.5700 H   0  0  0  0  0  0  0  0  0  0  0  0
    1.1710    1.9600    0.1910 C   0  0  0  0  0  0  0  0  0  0  0  0
    2.1900    2.6540    0.0840 O   0  0  0  0  0  0  0  0  0  0  0  0
   -0.1950    2.5720   -0.0400 C   0  0  0  0  0  0  0  0  0  0  0  0
   -0.0630    3.3760   -0.7610 H   0  0  0  0  0  0  0  0  0  0  0  0
   -0.5250    3.0040    0.9060 H   0  0  0  0  0  0  0  0  0  0  0  0
   -1.2170    1.6550   -0.4690 N   0  0  0  0  0  0  0  0  0  0  0  0
   -1.2630    1.3230   -1.4220 H   0  0  0  0  0  0  0  0  0  0  0  0
   -2.2540    1.2990    0.3320 C   0  0  0  0  0  0  0  0  0  0  0  0
   -2.3440    1.5960    1.5160 O   0  0  0  0  0  0  0  0  0  0  0  0
   -3.3150    0.4500   -0.3570 C   0  0  1  0  0  0  0  0  0  0  0  0
   -3.1720    0.4960   -1.8140 N   0  0  0  0  0  0  0  0  0  0  0  0
   -3.7460   -0.2270   -2.2320 H   0  0  0  0  0  0  0  0  0  0  0  0
   -3.5310    1.3760   -2.1670 H   0  0  0  0  0  0  0  0  0  0  0  0
   -4.2740    0.8430   -0.0050 H   0  0  0  0  0  0  0  0  0  0  0  0
   -3.1960   -0.9910    0.1600 C   0  0  0  0  0  0  0  0  0  0  0  0
   -3.5520   -0.9970    1.1890 H   0  0  0  0  0  0  0  0  0  0  0  0
   -3.8800   -1.6170   -0.4210 H   0  0  0  0  0  0  0  0  0  0  0  0
   -1.8060   -1.5660    0.1260 C   0  0  0  0  0  0  0  0  0  0  0  0
   -1.1420   -1.8440   -1.0760 C   0  0  0  0  0  0  0  0  0  0  0  0
   -1.6260   -1.6240   -2.0170 H   0  0  0  0  0  0  0  0  0  0  0  0
    0.1390   -2.3940   -1.0710 C   0  0  0  0  0  0  0  0  0  0  0  0
    0.6440   -2.5930   -2.0060 H   0  0  0  0  0  0  0  0  0  0  0  0
    0.7710   -2.7000    0.1340 C   0  0  0  0  0  0  0  0  0  0  0  0
    1.7660   -3.1220    0.1300 H   0  0  0  0  0  0  0  0  0  0  0  0
    0.1180   -2.4290    1.3360 C   0  0  0  0  0  0  0  0  0  0  0  0
    0.5940   -2.6660    2.2780 H   0  0  0  0  0  0  0  0  0  0  0  0
   -1.1520   -1.8510    1.3300 C   0  0  0  0  0  0  0  0  0  0  0  0
   -1.6510   -1.6330    2.2660 H   0  0  0  0  0  0  0  0  0  0  0  0
  1  2  2  0  0  0  0
  2  5  1  0  0  0  0
  3  4  1  0  0  0  0
  3  2  1  0  0  0  0
  5  7  1  0  0  0  0
  5  6  1  0  0  0  0
  8  9  1  0  0  0  0
  8  5  1  0  0  0  0
 10  8  1  0  0  0  0
 11 10  2  0  0  0  0
 12 10  1  0  0  0  0
 12 14  1  0  0  0  0
 13 12  1  0  0  0  0
 15 12  1  0  0  0  0
 15 17  1  0  0  0  0
 16 15  1  0  0  0  0
 17 18  2  0  0  0  0
 19 23  1  1  0  0  0
 19 24  1  0  0  0  0
 19 17  1  0  0  0  0
 20 19  1  0  0  0  0
 21 20  1  0  0  0  0
 22 20  1  0  0  0  0
 24 25  1  0  0  0  0
 26 24  1  0  0  0  0
 27 24  1  0  0  0  0
 27 36  1  0  0  0  0
 28 30  1  0  0  0  0
 28 27  2  0  0  0  0
 29 28  1  0  0  0  0
 30 32  2  0  0  0  0
 31 30  1  0  0  0  0
 32 34  1  0  0  0  0
 33 32  1  0  0  0  0
 34 35  1  0  0  0  0
 36 34  2  0  0  0  0
 36 37  1  0  0  0  0
M  END
$$$$
