./ArbAlign_Supporting-Information/Coordinates/FGG-Tripeptide/264_FGG114.xyz
 OpenBabel04142505293D

 37 37  0  0  1  0  0  0  0  0999 V2000
    3.7840    1.4280   -0.2880 O   0  0  0  0  0  0  0  0  0  0  0  0
    3.3730    0.3160   -0.0540 C   0  0  0  0  0  0  0  0  0  0  0  0
    3.7090   -0.7430   -0.7970 O   0  0  0  0  0  0  0  0  0  0  0  0
    3.2970   -1.5490   -0.4040 H   0  0  0  0  0  0  0  0  0  0  0  0
    2.4490    0.0070    1.1210 C   0  0  0  0  0  0  0  0  0  0  0  0
    2.2260    0.9360    1.6330 H   0  0  0  0  0  0  0  0  0  0  0  0
    2.9730   -0.6670    1.8020 H   0  0  0  0  0  0  0  0  0  0  0  0
    1.2000   -0.6230    0.7340 N   0  0  0  0  0  0  0  0  0  0  0  0
    0.3770   -0.0510    0.6030 H   0  0  0  0  0  0  0  0  0  0  0  0
    1.1590   -1.9210    0.3930 C   0  0  0  0  0  0  0  0  0  0  0  0
    2.1720   -2.6290    0.3370 O   0  0  0  0  0  0  0  0  0  0  0  0
   -0.1950   -2.5140    0.0690 C   0  0  0  0  0  0  0  0  0  0  0  0
   -0.2320   -3.4860    0.5610 H   0  0  0  0  0  0  0  0  0  0  0  0
   -0.2430   -2.6870   -1.0060 H   0  0  0  0  0  0  0  0  0  0  0  0
   -1.3150   -1.6840    0.4160 N   0  0  0  0  0  0  0  0  0  0  0  0
   -1.4870   -1.3750    1.3630 H   0  0  0  0  0  0  0  0  0  0  0  0
   -2.2480   -1.3180   -0.4990 C   0  0  0  0  0  0  0  0  0  0  0  0
   -2.2100   -1.6170   -1.6860 O   0  0  0  0  0  0  0  0  0  0  0  0
   -3.3540   -0.4300    0.0570 C   0  0  1  0  0  0  0  0  0  0  0  0
   -3.3320   -0.4010    1.5210 N   0  0  0  0  0  0  0  0  0  0  0  0
   -3.8160   -1.2120    1.8890 H   0  0  0  0  0  0  0  0  0  0  0  0
   -3.8460    0.4050    1.8560 H   0  0  0  0  0  0  0  0  0  0  0  0
   -4.2890   -0.8220   -0.3520 H   0  0  0  0  0  0  0  0  0  0  0  0
   -3.1530    0.9780   -0.5260 C   0  0  0  0  0  0  0  0  0  0  0  0
   -3.3580    0.9140   -1.5940 H   0  0  0  0  0  0  0  0  0  0  0  0
   -3.9040    1.6400   -0.0870 H   0  0  0  0  0  0  0  0  0  0  0  0
   -1.7750    1.5420   -0.3200 C   0  0  0  0  0  0  0  0  0  0  0  0
   -0.8140    1.4260   -1.3320 C   0  0  0  0  0  0  0  0  0  0  0  0
   -1.0750    0.9140   -2.2500 H   0  0  0  0  0  0  0  0  0  0  0  0
    0.4620    1.9650   -1.1710 C   0  0  0  0  0  0  0  0  0  0  0  0
    1.1950    1.8720   -1.9610 H   0  0  0  0  0  0  0  0  0  0  0  0
    0.7980    2.6300    0.0080 C   0  0  0  0  0  0  0  0  0  0  0  0
    1.7890    3.0450    0.1250 H   0  0  0  0  0  0  0  0  0  0  0  0
   -0.1470    2.7370    1.0290 C   0  0  0  0  0  0  0  0  0  0  0  0
    0.1030    3.2530    1.9470 H   0  0  0  0  0  0  0  0  0  0  0  0
   -1.4210    2.1950    0.8660 C   0  0  0  0  0  0  0  0  0  0  0  0
   -2.1520    2.3000    1.6580 H   0  0  0  0  0  0  0  0  0  0  0  0
  1  2  2  0  0  0  0
  2  5  1  0  0  0  0
  3  4  1  0  0  0  0
  3  2  1  0  0  0  0
  5  6  1  0  0  0  0
  5  7  1  0  0  0  0
  8  5  1  0  0  0  0
  9  8  1  0  0  0  0
 10  8  1  0  0  0  0
 11 10  2  0  0  0  0
 12 10  1  0  0  0  0
 12 15  1  0  0  0  0
 12 13  1  0  0  0  0
 14 12  1  0  0  0  0
 15 16  1  0  0  0  0
 17 19  1  0  0  0  0
 17 15  1  0  0  0  0
 18 17  2  0  0  0  0
 19 23  1  6  0  0  0
 19 20  1  0  0  0  0
 20 22  1  0  0  0  0
 20 21  1  0  0  0  0
 24 27  1  0  0  0  0
 24 26  1  0  0  0  0
 24 19  1  0  0  0  0
 25 24  1  0  0  0  0
 27 36  1  0  0  0  0
 28 30  1  0  0  0  0
 28 27  2  0  0  0  0
 29 28  1  0  0  0  0
 30 32  2  0  0  0  0
 31 30  1  0  0  0  0
 32 33  1  0  0  0  0
 32 34  1  0  0  0  0
 34 35  1  0  0  0  0
 36 34  2  0  0  0  0
 36 37  1  0  0  0  0
M  END
$$$$
