./ArbAlign_Supporting-Information/Coordinates/FGG-Tripeptide/265_FGG357.xyz
 OpenBabel04142505293D

 37 37  0  0  1  0  0  0  0  0999 V2000
   -3.5420    1.7280    0.3070 O   0  0  0  0  0  0  0  0  0  0  0  0
   -3.2840    0.5740    0.0580 C   0  0  0  0  0  0  0  0  0  0  0  0
   -3.7570   -0.4410    0.7870 O   0  0  0  0  0  0  0  0  0  0  0  0
   -3.4430   -1.2900    0.3940 H   0  0  0  0  0  0  0  0  0  0  0  0
   -2.4060    0.1620   -1.1210 C   0  0  0  0  0  0  0  0  0  0  0  0
   -2.0650    1.0610   -1.6210 H   0  0  0  0  0  0  0  0  0  0  0  0
   -3.0090   -0.4330   -1.8090 H   0  0  0  0  0  0  0  0  0  0  0  0
   -1.2460   -0.6240   -0.7380 N   0  0  0  0  0  0  0  0  0  0  0  0
   -0.3550   -0.1660   -0.6180 H   0  0  0  0  0  0  0  0  0  0  0  0
   -1.3570   -1.9180   -0.3960 C   0  0  0  0  0  0  0  0  0  0  0  0
   -2.4450   -2.5030   -0.3320 O   0  0  0  0  0  0  0  0  0  0  0  0
   -0.0700   -2.6520   -0.0730 C   0  0  0  0  0  0  0  0  0  0  0  0
   -0.1290   -3.6260   -0.5580 H   0  0  0  0  0  0  0  0  0  0  0  0
   -0.0400   -2.8160    1.0040 H   0  0  0  0  0  0  0  0  0  0  0  0
    1.1230   -1.9390   -0.4360 N   0  0  0  0  0  0  0  0  0  0  0  0
    1.4360   -1.8610   -1.3940 H   0  0  0  0  0  0  0  0  0  0  0  0
    2.0110   -1.5010    0.4930 C   0  0  0  0  0  0  0  0  0  0  0  0
    1.8810   -1.6580    1.7000 O   0  0  0  0  0  0  0  0  0  0  0  0
    3.1870   -0.7200   -0.0930 C   0  0  1  0  0  0  0  0  0  0  0  0
    3.0990   -0.6420   -1.5510 N   0  0  0  0  0  0  0  0  0  0  0  0
    2.5940    0.1960   -1.8190 H   0  0  0  0  0  0  0  0  0  0  0  0
    4.0240   -0.5660   -1.9540 H   0  0  0  0  0  0  0  0  0  0  0  0
    4.0830   -1.2840    0.1670 H   0  0  0  0  0  0  0  0  0  0  0  0
    3.2440    0.6480    0.6200 C   0  0  0  0  0  0  0  0  0  0  0  0
    3.3850    0.4690    1.6850 H   0  0  0  0  0  0  0  0  0  0  0  0
    4.1100    1.1940    0.2430 H   0  0  0  0  0  0  0  0  0  0  0  0
    1.9840    1.4350    0.3910 C   0  0  0  0  0  0  0  0  0  0  0  0
    0.9010    1.3120    1.2730 C   0  0  0  0  0  0  0  0  0  0  0  0
    1.0020    0.6790    2.1450 H   0  0  0  0  0  0  0  0  0  0  0  0
   -0.2930    1.9900    1.0350 C   0  0  0  0  0  0  0  0  0  0  0  0
   -1.1200    1.8930    1.7260 H   0  0  0  0  0  0  0  0  0  0  0  0
   -0.4310    2.7980   -0.0940 C   0  0  0  0  0  0  0  0  0  0  0  0
   -1.3660    3.3110   -0.2720 H   0  0  0  0  0  0  0  0  0  0  0  0
    0.6420    2.9390   -0.9720 C   0  0  0  0  0  0  0  0  0  0  0  0
    0.5550    3.5820   -1.8380 H   0  0  0  0  0  0  0  0  0  0  0  0
    1.8410    2.2660   -0.7270 C   0  0  0  0  0  0  0  0  0  0  0  0
    2.6840    2.4160   -1.3920 H   0  0  0  0  0  0  0  0  0  0  0  0
  2  1  2  0  0  0  0
  2  3  1  0  0  0  0
  4  3  1  0  0  0  0
  5  8  1  0  0  0  0
  5  2  1  0  0  0  0
  6  5  1  0  0  0  0
  7  5  1  0  0  0  0
  8  9  1  0  0  0  0
  8 10  1  0  0  0  0
 10 11  2  0  0  0  0
 10 12  1  0  0  0  0
 12 14  1  0  0  0  0
 13 12  1  0  0  0  0
 15 12  1  0  0  0  0
 15 17  1  0  0  0  0
 16 15  1  0  0  0  0
 17 18  2  0  0  0  0
 19 23  1  1  0  0  0
 19 17  1  0  0  0  0
 19 24  1  0  0  0  0
 20 19  1  0  0  0  0
 21 20  1  0  0  0  0
 22 20  1  0  0  0  0
 24 25  1  0  0  0  0
 26 24  1  0  0  0  0
 27 24  1  0  0  0  0
 27 28  1  0  0  0  0
 28 29  1  0  0  0  0
 30 28  2  0  0  0  0
 30 31  1  0  0  0  0
 32 30  1  0  0  0  0
 33 32  1  0  0  0  0
 34 36  1  0  0  0  0
 34 32  2  0  0  0  0
 35 34  1  0  0  0  0
 36 27  2  0  0  0  0
 37 36  1  0  0  0  0
M  END
$$$$
