./ArbAlign_Supporting-Information/Coordinates/FGG-Tripeptide/266_FGG691.xyz
 OpenBabel04142505293D

 37 37  0  0  1  0  0  0  0  0999 V2000
    2.7720   -1.4580    0.2540 O   0  0  0  0  0  0  0  0  0  0  0  0
    3.8030   -1.0290   -0.2080 C   0  0  0  0  0  0  0  0  0  0  0  0
    4.9640   -1.7180   -0.2120 O   0  0  0  0  0  0  0  0  0  0  0  0
    4.7720   -2.5620    0.2230 H   0  0  0  0  0  0  0  0  0  0  0  0
    3.9800    0.3220   -0.8710 C   0  0  0  0  0  0  0  0  0  0  0  0
    4.2740    0.1610   -1.9070 H   0  0  0  0  0  0  0  0  0  0  0  0
    4.7910    0.8420   -0.3670 H   0  0  0  0  0  0  0  0  0  0  0  0
    2.7840    1.1110   -0.8000 N   0  0  0  0  0  0  0  0  0  0  0  0
    1.9830    0.8120   -1.3500 H   0  0  0  0  0  0  0  0  0  0  0  0
    2.4710    1.6810    0.4010 C   0  0  0  0  0  0  0  0  0  0  0  0
    3.2720    1.8310    1.3130 O   0  0  0  0  0  0  0  0  0  0  0  0
    1.0030    2.0640    0.5190 C   0  0  0  0  0  0  0  0  0  0  0  0
    0.6420    2.5200   -0.4010 H   0  0  0  0  0  0  0  0  0  0  0  0
    0.8870    2.7540    1.3490 H   0  0  0  0  0  0  0  0  0  0  0  0
    0.2200    0.8700    0.7740 N   0  0  0  0  0  0  0  0  0  0  0  0
    0.1200    0.4940    1.7080 H   0  0  0  0  0  0  0  0  0  0  0  0
   -0.0850    0.0090   -0.2110 C   0  0  0  0  0  0  0  0  0  0  0  0
    0.1350    0.2260   -1.4080 O   0  0  0  0  0  0  0  0  0  0  0  0
   -0.7080   -1.3020    0.2580 C   0  0  1  0  0  0  0  0  0  0  0  0
   -1.0250   -1.2500    1.6830 N   0  0  0  0  0  0  0  0  0  0  0  0
   -1.0050   -2.1800    2.0790 H   0  0  0  0  0  0  0  0  0  0  0  0
   -1.9670   -0.8940    1.8100 H   0  0  0  0  0  0  0  0  0  0  0  0
    0.0910   -2.0340    0.1200 H   0  0  0  0  0  0  0  0  0  0  0  0
   -1.8860   -1.6730   -0.6610 C   0  0  0  0  0  0  0  0  0  0  0  0
   -1.5380   -1.6190   -1.6920 H   0  0  0  0  0  0  0  0  0  0  0  0
   -2.1770   -2.7030   -0.4490 H   0  0  0  0  0  0  0  0  0  0  0  0
   -3.0560   -0.7580   -0.4450 C   0  0  0  0  0  0  0  0  0  0  0  0
   -4.0940   -1.1180    0.4210 C   0  0  0  0  0  0  0  0  0  0  0  0
   -4.0800   -2.0980    0.8840 H   0  0  0  0  0  0  0  0  0  0  0  0
   -5.1520   -0.2470    0.6770 C   0  0  0  0  0  0  0  0  0  0  0  0
   -5.9480   -0.5470    1.3460 H   0  0  0  0  0  0  0  0  0  0  0  0
   -5.1850    1.0040    0.0670 C   0  0  0  0  0  0  0  0  0  0  0  0
   -6.0050    1.6820    0.2600 H   0  0  0  0  0  0  0  0  0  0  0  0
   -4.1600    1.3730   -0.8040 C   0  0  0  0  0  0  0  0  0  0  0  0
   -4.1850    2.3390   -1.2890 H   0  0  0  0  0  0  0  0  0  0  0  0
   -3.1040    0.5020   -1.0570 C   0  0  0  0  0  0  0  0  0  0  0  0
   -2.3090    0.7880   -1.7340 H   0  0  0  0  0  0  0  0  0  0  0  0
  2  1  2  0  0  0  0
  3  2  1  0  0  0  0
  3  4  1  0  0  0  0
  5  8  1  0  0  0  0
  5  7  1  0  0  0  0
  5  2  1  0  0  0  0
  6  5  1  0  0  0  0
  8 10  1  0  0  0  0
  9  8  1  0  0  0  0
 10 12  1  0  0  0  0
 10 11  2  0  0  0  0
 12 15  1  0  0  0  0
 12 14  1  0  0  0  0
 13 12  1  0  0  0  0
 15 16  1  0  0  0  0
 17 19  1  0  0  0  0
 17 15  1  0  0  0  0
 18 17  2  0  0  0  0
 19 23  1  6  0  0  0
 19 20  1  0  0  0  0
 20 22  1  0  0  0  0
 20 21  1  0  0  0  0
 24 26  1  0  0  0  0
 24 27  1  0  0  0  0
 24 19  1  0  0  0  0
 25 24  1  0  0  0  0
 27 28  1  0  0  0  0
 28 30  2  0  0  0  0
 28 29  1  0  0  0  0
 30 31  1  0  0  0  0
 32 33  1  0  0  0  0
 32 30  1  0  0  0  0
 34 32  2  0  0  0  0
 35 34  1  0  0  0  0
 36 34  1  0  0  0  0
 36 27  2  0  0  0  0
 37 36  1  0  0  0  0
M  END
$$$$
