@<TRIPOS>MOLECULE
215d_DNA.pdb
189 197 12 0 0
NUCLEIC_ACID
NO_CHARGES


@<TRIPOS>ATOM
      1 O5'         9.1820   20.4500   23.1100 O.3       1   C    0.0000
      2 C5'         9.7890   21.3450   24.0590 C.3       1   C    0.0000
      3 C4'        11.2490   20.9850   24.2180 C.3       1   C    0.0000
      4 O4'        11.3670   19.7530   24.9340 O.3       1   C    0.0000
      5 C3'        12.0840   20.8410   22.9510 C.3       1   C    0.0000
      6 O3'        13.1020   21.8340   22.9720 O.3       1   C    0.0000
      7 C2'        12.6800   19.4270   23.0090 C.3       1   C    0.0000
      8 C1'        12.4810   18.9940   24.4250 C.3       1   C    0.0000
      9 N1         12.0780   17.5960   24.5470 N.am      1   C    0.0000
     10 C2         13.0820   16.6570   24.7170 C.2       1   C    0.0000
     11 O2         14.2380   17.0280   24.7590 O.2       1   C    0.0000
     12 N3         12.7110   15.3600   24.7910 N.2       1   C    0.0000
     13 C4         11.4320   14.9610   24.7860 C.2       1   C    0.0000
     14 N4         11.1840   13.6640   24.9080 N.pl3     1   C    0.0000
     15 C5         10.3910   15.9030   24.6480 C.2       1   C    0.0000
     16 C6         10.7760   17.2020   24.5630 C.2       1   C    0.0000
     17 P          13.7380   22.8720   21.9270 P.3       2   G    0.0000
     18 O2P        14.6600   23.6030   22.8500 O.co2     2   G    0.0000
     19 O1P        12.6270   23.4450   21.1850 O.co2     2   G    0.0000
     20 O5'        14.5250   21.8790   20.8930 O.3       2   G    0.0000
     21 C5'        15.7900   21.3530   21.3390 C.3       2   G    0.0000
     22 C4'        16.3950   20.6750   20.1460 C.3       2   G    0.0000
     23 O4'        15.7790   19.4010   19.9500 O.3       2   G    0.0000
     24 C3'        16.2180   21.3810   18.8150 C.3       2   G    0.0000
     25 O3'        17.2890   20.9620   18.0030 O.3       2   G    0.0000
     26 C2'        14.8740   20.8240   18.3270 C.3       2   G    0.0000
     27 C1'        15.1830   19.3510   18.6720 C.3       2   G    0.0000
     28 N9         14.0050   18.4930   18.5650 N.ar      2   G    0.0000
     29 C8         12.7060   18.8190   18.4810 C.ar      2   G    0.0000
     30 N7         11.8900   17.7840   18.3320 N.ar      2   G    0.0000
     31 C5         12.7620   16.7020   18.3060 C.ar      2   G    0.0000
     32 C6         12.5170   15.3040   18.1680 C.2       2   G    0.0000
     33 O6         11.3950   14.7780   18.0720 O.2       2   G    0.0000
     34 N1         13.6390   14.5420   18.1780 N.2       2   G    0.0000
     35 C2         14.8600   15.0590   18.3430 C.2       2   G    0.0000
     36 N2         15.8800   14.2020   18.3320 N.pl3     2   G    0.0000
     37 N3         15.1720   16.3590   18.4330 N.pl3     2   G    0.0000
     38 C4         14.0500   17.1180   18.4060 C.ar      2   G    0.0000
     39 P          18.3410   21.6820   17.0700 P.3       3   T    0.0000
     40 O2P        18.9490   22.8290   17.7220 O.co2     3   T    0.0000
     41 O1P        17.3340   21.8680   15.9190 O.co2     3   T    0.0000
     42 O5'        19.3420   20.5490   16.5870 O.3       3   T    0.0000
     43 C5'        20.2650   19.7890   17.4090 C.3       3   T    0.0000
     44 C4'        20.0990   18.3950   16.8310 C.3       3   T    0.0000
     45 O4'        18.7460   18.0600   16.8950 O.3       3   T    0.0000
     46 C3'        20.4000   18.2650   15.3310 C.3       3   T    0.0000
     47 O3'        21.7240   18.2150   15.0280 O.3       3   T    0.0000
     48 C2'        19.6970   16.8960   15.0180 C.3       3   T    0.0000
     49 C1'        18.6510   16.8420   16.0680 C.3       3   T    0.0000
     50 N1         17.2530   16.7940   15.5850 N.am      3   T    0.0000
     51 C2         16.7580   15.5060   15.4530 C.2       3   T    0.0000
     52 O2         17.5060   14.5420   15.5910 O.2       3   T    0.0000
     53 N3         15.4420   15.3660   15.1240 N.am      3   T    0.0000
     54 C4         14.6290   16.4570   14.9700 C.2       3   T    0.0000
     55 O4         13.4510   16.1730   14.7470 O.2       3   T    0.0000
     56 C5         15.1380   17.7620   15.1450 C.2       3   T    0.0000
     57 C5M        14.2440   18.9710   14.9540 C.3       3   T    0.0000
     58 C6         16.4510   17.9020   15.4630 C.2       3   T    0.0000
     59 P          22.6210   17.9640   13.7190 P.3       4   A    0.0000
     60 O2P        23.9770   17.9110   14.4030 O.co2     4   A    0.0000
     61 O1P        22.3090   19.0750   12.8810 O.co2     4   A    0.0000
     62 O5'        22.0870   16.5750   13.1990 O.3       4   A    0.0000
     63 C5'        22.7680   15.4810   13.8090 C.3       4   A    0.0000
     64 C4'        22.3090   14.2470   13.0450 C.3       4   A    0.0000
     65 O4'        20.9170   14.1900   13.0880 O.3       4   A    0.0000
     66 C3'        22.7310   14.3080   11.5760 C.3       4   A    0.0000
     67 O3'        23.1780   13.0570   11.1520 O.3       4   A    0.0000
     68 C2'        21.4510   14.8400   10.9080 C.3       4   A    0.0000
     69 C1'        20.4080   14.1170   11.7300 C.3       4   A    0.0000
     70 N9         19.1260   14.8120   11.7140 N.ar      4   A    0.0000
     71 C8         18.9040   16.1760   11.8150 C.ar      4   A    0.0000
     72 N7         17.6610   16.5050   11.8040 N.ar      4   A    0.0000
     73 C5         16.9940   15.2980   11.7720 C.ar      4   A    0.0000
     74 C6         15.6160   14.9750   11.7460 C.ar      4   A    0.0000
     75 N6         14.6430   15.8520   11.7410 N.pl3     4   A    0.0000
     76 N1         15.3710   13.6530   11.6820 N.ar      4   A    0.0000
     77 C2         16.3450   12.7140   11.6610 C.ar      4   A    0.0000
     78 N3         17.6520   12.9330   11.6450 N.ar      4   A    0.0000
     79 C4         17.8910   14.2550   11.7040 C.ar      4   A    0.0000
     80 P          23.8670   12.7420    9.6940 P.3       5   C    0.0000
     81 O2P        24.8320   11.7410    9.9540 O.co2     5   C    0.0000
     82 O1P        24.1880   14.1370    9.2690 O.co2     5   C    0.0000
     83 O5'        22.5570   12.2700    8.9140 O.3       5   C    0.0000
     84 C5'        22.0450   10.8970    9.0410 C.3       5   C    0.0000
     85 C4'        20.8160   10.9340    8.1660 C.3       5   C    0.0000
     86 O4'        19.9410   11.9410    8.7230 O.3       5   C    0.0000
     87 C3'        20.9900   11.3470    6.7030 C.3       5   C    0.0000
     88 O3'        20.2840   10.4700    5.8380 O.3       5   C    0.0000
     89 C2'        20.3830   12.7620    6.6550 C.3       5   C    0.0000
     90 C1'        19.2210   12.5110    7.6360 C.3       5   C    0.0000
     91 N1         18.5180   13.7430    7.9490 N.am      5   C    0.0000
     92 C2         17.1400   13.6340    8.1130 C.2       5   C    0.0000
     93 O2         16.6310   12.5170    8.0440 O.2       5   C    0.0000
     94 N3         16.4370   14.7390    8.3730 N.2       5   C    0.0000
     95 C4         17.0340   15.9700    8.4320 C.2       5   C    0.0000
     96 N4         16.3110   17.0670    8.6070 N.pl3     5   C    0.0000
     97 C5         18.4310   16.0910    8.2250 C.2       5   C    0.0000
     98 C6         19.1200   14.9550    8.0230 C.2       5   C    0.0000
     99 P          21.1200    9.4770    4.8680 P.3       6   G    0.0000
    100 O1P        21.7830    8.4960    5.7380 O.co2     6   G    0.0000
    101 O2P        21.8700   10.4780    4.0830 O.co2     6   G    0.0000
    102 O5'        19.8880    8.9650    3.8760 O.3       6   G    0.0000
    103 C5'        18.9200    8.1440    4.5550 C.3       6   G    0.0000
    104 C4'        17.9620    7.6320    3.5000 C.3       6   G    0.0000
    105 O4'        17.1120    8.6950    3.0860 O.3       6   G    0.0000
    106 C3'        18.5970    7.0640    2.2480 C.3       6   G    0.0000
    107 O3'        17.9020    5.8520    1.8560 O.3       6   G    0.0000
    108 C2'        18.5210    8.1920    1.2570 C.3       6   G    0.0000
    109 C1'        17.3010    8.9620    1.6490 C.3       6   G    0.0000
    110 N9         17.4130   10.4140    1.5640 N.ar      6   G    0.0000
    111 C8         18.5040   11.2010    1.5910 C.ar      6   G    0.0000
    112 N7         18.2510   12.5000    1.6120 N.ar      6   G    0.0000
    113 C5         16.8340   12.5370    1.5640 C.ar      6   G    0.0000
    114 C6         15.9560   13.6310    1.5170 C.2       6   G    0.0000
    115 O6         16.3000   14.7950    1.5060 O.2       6   G    0.0000
    116 N1         14.6070   13.3050    1.5060 N.2       6   G    0.0000
    117 C2         14.2100   12.0050    1.5010 C.2       6   G    0.0000
    118 N2         12.9020   11.7920    1.4530 N.pl3     6   G    0.0000
    119 N3         15.0030   10.9390    1.5110 N.pl3     6   G    0.0000
    120 C4         16.3190   11.2800    1.5480 C.ar      6   G    0.0000
    121 H           8.2450   20.6770   23.0050 H         7   C    0.0000
    122 H           9.2930   21.2550   25.0030 H         7   C    0.0000
    123 H           9.7030   22.3520   23.7090 H         7   C    0.0000
    124 H          11.6460   21.8350   24.7330 H         7   C    0.0000
    125 H          11.5180   20.9710   22.0520 H         7   C    0.0000
    126 H          13.7210   19.4450   22.7620 H         7   C    0.0000
    127 H          12.2160   18.7610   22.3110 H         7   C    0.0000
    128 H          13.4070   19.1360   24.9420 H         7   C    0.0000
    129 H          11.9290   13.0270   25.0030 H         7   C    0.0000
    130 H          10.2550   13.3380   24.9040 H         7   C    0.0000
    131 H           9.3990   15.6220   24.6140 H         7   C    0.0000
    132 H          10.0440   17.9270   24.5080 H         7   C    0.0000
    133 H          16.4240   22.1450   21.6780 H         8   G    0.0000
    134 H          15.6680   20.6740   22.1570 H         8   G    0.0000
    135 H          17.4370   20.6470   20.3860 H         8   G    0.0000
    136 H          16.2160   22.4510   18.8320 H         8   G    0.0000
    137 H          14.0410   21.2120   18.8750 H         8   G    0.0000
    138 H          14.5890   21.0420   17.3190 H         8   G    0.0000
    139 H          15.8510   18.8910   17.9750 H         8   G    0.0000
    140 H          12.3700   19.7940   18.5280 H         8   G    0.0000
    141 H          15.7090   13.2350   18.2670 H         8   G    0.0000
    142 H          16.8040   14.5360   18.3880 H         8   G    0.0000
    143 H          16.0880   16.7130   18.5080 H         8   G    0.0000
    144 H          19.9870   19.8210   18.4420 H         9   T    0.0000
    145 H          21.2710   20.1540   17.3910 H         9   T    0.0000
    146 H          20.7780   17.7890   17.3930 H         9   T    0.0000
    147 H          20.0620   19.1070   14.7640 H         9   T    0.0000
    148 H          20.3810   16.0780   15.1080 H         9   T    0.0000
    149 H          19.3130   16.8250   14.0220 H         9   T    0.0000
    150 H          18.8440   15.9280   16.5900 H         9   T    0.0000
    151 H          15.0700   14.4640   14.9950 H         9   T    0.0000
    152 H          13.2540   18.6470   14.7100 H         9   T    0.0000
    153 H          14.6270   19.5760   14.1590 H         9   T    0.0000
    154 H          14.2200   19.5430   15.8580 H         9   T    0.0000
    155 H          16.8470   18.8430   15.6130 H         9   T    0.0000
    156 H          23.8270   15.6030   13.7220 H        10   A    0.0000
    157 H          22.5500   15.4080   14.8540 H        10   A    0.0000
    158 H          22.7560   13.3870   13.4990 H        10   A    0.0000
    159 H          23.5660   14.9350   11.3400 H        10   A    0.0000
    160 H          21.4000   14.5690    9.8740 H        10   A    0.0000
    161 H          21.3570   15.9060   10.8970 H        10   A    0.0000
    162 H          20.2490   13.1270   11.3550 H        10   A    0.0000
    163 H          19.6680   16.8660   11.8920 H        10   A    0.0000
    164 H          13.7070   15.5480   11.7220 H        10   A    0.0000
    165 H          14.8480   16.8150   11.7560 H        10   A    0.0000
    166 H          16.0390   11.7280   11.6570 H        10   A    0.0000
    167 H          22.7560   10.1830    8.6810 H        11   C    0.0000
    168 H          21.8450   10.6040   10.0510 H        11   C    0.0000
    169 H          20.4690    9.9220    8.1560 H        11   C    0.0000
    170 H          22.0100   11.3160    6.3820 H        11   C    0.0000
    171 H          20.0410   13.0260    5.6760 H        11   C    0.0000
    172 H          21.0420   13.5710    6.8940 H        11   C    0.0000
    173 H          18.4270   11.8860    7.2850 H        11   C    0.0000
    174 H          16.7520   17.9460    8.6480 H        11   C    0.0000
    175 H          15.3330   17.0030    8.6960 H        11   C    0.0000
    176 H          18.8980   17.0110    8.2290 H        11   C    0.0000
    177 H          20.1460   15.0070    7.9200 H        11   C    0.0000
    178 H          18.3910    8.7240    5.2820 H        12   G    0.0000
    179 H          19.3960    7.3340    5.0670 H        12   G    0.0000
    180 H          17.4460    6.8260    3.9780 H        12   G    0.0000
    181 H          19.6150    6.7530    2.3580 H        12   G    0.0000
    182 H          16.9590    6.0450    1.7330 H        12   G    0.0000
    183 H          18.4240    7.8130    0.2610 H        12   G    0.0000
    184 H          19.4020    8.7990    1.2670 H        12   G    0.0000
    185 H          16.5220    8.6570    0.9820 H        12   G    0.0000
    186 H          19.4640   10.8210    1.5950 H        12   G    0.0000
    187 H          12.2790   12.5540    1.4440 H        12   G    0.0000
    188 H          12.5540   10.8720    1.4260 H        12   G    0.0000
    189 H          14.6760   10.0110    1.4940 H        12   G    0.0000
@<TRIPOS>BOND
     1    1    2 1
     2    1  121 1
     3    2    3 1
     4    2  122 1
     5    2  123 1
     6    3    4 1
     7    3    5 1
     8    4    8 1
     9    5    7 1
    10    5    6 1
    11    5  125 1
    12    6   17 1
    13    7    8 1
    14    7  126 1
    15    7  127 1
    16    8    9 1
    17    8  128 1
    18    9   16 1
    19    9   10 am
    20   10   12 1
    21   10   11 2
    22   12   13 2
    23   13   15 2
    24   13   14 2
    25   14  129 1
    26   14  130 1
    27   15   16 2
    28   15  131 1
    29   16  132 1
    30   17   20 1
    31   17   19 1
    32   17   18 1
    33   20   21 1
    34   21   22 1
    35   21  133 1
    36   21  134 1
    37   22   24 1
    38   22   23 1
    39   23   27 1
    40   24   25 1
    41   24   26 1
    42   24  136 1
    43   25   39 1
    44   26   27 1
    45   26  137 1
    46   26  138 1
    47   27   28 1
    48   27  139 1
    49   28   38 ar
    50   28   29 ar
    51   29   30 ar
    52   29  140 1
    53   30   31 ar
    54   31   32 1
    55   31   38 ar
    56   32   33 2
    57   32   34 2
    58   34   35 2
    59   35   36 2
    60   35   37 2
    61   36  141 1
    62   36  142 1
    63   37   38 1
    64   37  143 1
    65   39   41 1
    66   39   42 1
    67   39   40 1
    68   42   43 1
    69   43   44 1
    70   43  144 1
    71   43  145 1
    72   44   46 1
    73   44   45 1
    74   45   49 1
    75   46   48 1
    76   46   47 1
    77   46  147 1
    78   47   59 1
    79   48   49 1
    80   48  148 1
    81   48  149 1
    82   49   50 1
    83   49  150 1
    84   50   51 am
    85   50   58 1
    86   51   53 am
    87   51   52 2
    88   53   54 am
    89   53  151 1
    90   54   55 2
    91   54   56 1
    92   56   57 1
    93   56   58 2
    94   57  152 1
    95   57  153 1
    96   57  154 1
    97   58  155 1
    98   59   61 1
    99   59   62 1
   100   59   60 1
   101   62   63 1
   102   63   64 1
   103   63  156 1
   104   63  157 1
   105   64   66 1
   106   64   65 1
   107   65   69 1
   108   66   68 1
   109   66   67 1
   110   66  159 1
   111   67   80 1
   112   68   69 1
   113   68  160 1
   114   68  161 1
   115   69   70 1
   116   69  162 1
   117   70   79 ar
   118   70   71 ar
   119   71   72 ar
   120   71  163 1
   121   72   73 ar
   122   73   79 ar
   123   73   74 ar
   124   74   76 ar
   125   74   75 1
   126   75  164 1
   127   75  165 1
   128   76   77 ar
   129   77   78 ar
   130   77  166 1
   131   78   79 ar
   132   80   83 1
   133   80   82 1
   134   80   81 1
   135   83   84 1
   136   84   85 1
   137   84  167 1
   138   84  168 1
   139   85   87 1
   140   85   86 1
   141   86   90 1
   142   87   88 1
   143   87   89 1
   144   87  170 1
   145   88   99 1
   146   89   90 1
   147   89  171 1
   148   89  172 1
   149   90   91 1
   150   90  173 1
   151   91   98 1
   152   91   92 am
   153   92   93 2
   154   92   94 1
   155   94   95 2
   156   95   97 2
   157   95   96 2
   158   96  174 1
   159   96  175 1
   160   97   98 2
   161   97  176 1
   162   98  177 1
   163   99  100 1
   164   99  101 1
   165   99  102 1
   166  102  103 1
   167  103  104 1
   168  103  178 1
   169  103  179 1
   170  104  105 1
   171  104  106 1
   172  105  109 1
   173  106  108 1
   174  106  107 1
   175  106  181 1
   176  107  182 1
   177  108  109 1
   178  108  183 1
   179  108  184 1
   180  109  110 1
   181  109  185 1
   182  110  111 ar
   183  110  120 ar
   184  111  112 ar
   185  111  186 1
   186  112  113 ar
   187  113  114 1
   188  113  120 ar
   189  114  115 2
   190  114  116 2
   191  116  117 2
   192  117  118 2
   193  117  119 2
   194  118  187 1
   195  118  188 1
   196  119  120 1
   197  119  189 1
@<TRIPOS>SUBSTRUCTURE
     1   C     3 RESIDUE           4 A       C    12 ROOT
     2   G    22 RESIDUE           4 A       G    12
     3   T    44 RESIDUE           4 A       T    13
     4   A    64 RESIDUE           4 A       A    12
     5   C    85 RESIDUE           4 A       C    12
     6   G   104 RESIDUE           4 A       G    12
     7   C   121 RESIDUE           4 A       C    11 ROOT
     8   G   133 RESIDUE           4 A       G    10 ROOT
     9   T   144 RESIDUE           4 A       T    11 ROOT
    10   A   156 RESIDUE           4 A       A    10 ROOT
    11   C   167 RESIDUE           4 A       C    10 ROOT
    12   G   178 RESIDUE           4 A       G    11 ROOT
