GLUCANASE
     RDKit          3D

 45 46  0  0  0  0  0  0  0  0999 V2000
   -3.2152    2.3285    1.1263 C   0  0  1  0  0  0  0  0  0  0  0  0
   -2.9607    1.2368    2.1002 C   0  0  1  0  0  0  0  0  0  0  0  0
   -1.8449    0.2939    1.7679 C   0  0  2  0  0  0  0  0  0  0  0  0
   -1.6407    0.0883    0.3026 C   0  0  1  0  0  0  0  0  0  0  0  0
   -1.9238    1.3340   -0.5117 C   0  0  1  0  0  0  0  0  0  0  0  0
   -3.0754    1.1130   -1.4692 C   0  0  2  0  0  0  0  0  0  0  0  0
   -3.3054    3.5443    1.8020 O   0  0  0  0  0  0  0  0  0  0  0  0
   -2.7680    1.8300    3.3702 O   0  0  0  0  0  0  0  0  0  0  0  0
   -2.1487   -0.9455    2.3286 O   0  0  0  0  0  0  0  0  0  0  0  0
   -0.5194   -0.4742   -0.1186 O   0  0  0  0  0  0  0  0  0  0  0  0
   -2.1231    2.4494    0.2881 O   0  0  0  0  0  0  0  0  0  0  0  0
   -2.8393   -0.0244   -2.2639 O   0  0  0  0  0  0  0  0  0  0  0  0
   -4.1721    2.2205    0.5726 H   0  0  0  0  0  0  0  0  0  0  0  0
   -3.9435    0.6972    2.2313 H   0  0  0  0  0  0  0  0  0  0  0  0
   -0.9735    0.6735    2.3175 H   0  0  0  0  0  0  0  0  0  0  0  0
   -2.4712   -0.6018    0.0306 H   0  0  0  0  0  0  0  0  0  0  0  0
   -1.0565    1.5685   -1.1405 H   0  0  0  0  0  0  0  0  0  0  0  0
   -3.2174    1.9369   -2.1660 H   0  0  0  0  0  0  0  0  0  0  0  0
   -4.0375    0.8794   -0.9482 H   0  0  0  0  0  0  0  0  0  0  0  0
   -1.3548   -1.4198    2.6718 H   0  0  0  0  0  0  0  0  0  0  0  0
    0.1062   -1.3668   -2.1728 C   0  0  2  0  0  0  0  0  0  0  0  0
    1.5718   -1.5501   -2.4054 C   0  0  2  0  0  0  0  0  0  0  0  0
    2.0815   -2.7875   -1.7680 C   0  0  1  0  0  0  0  0  0  0  0  0
    1.5381   -3.0243   -0.4161 C   0  0  1  0  0  0  0  0  0  0  0  0
    2.4737   -2.4162    0.6139 C   0  0  2  0  0  0  0  0  0  0  0  0
   -0.3417   -1.6354   -0.7502 C   0  0  1  0  0  0  0  0  0  0  0  0
   -0.5596   -2.1532   -3.1182 O   0  0  0  0  0  0  0  0  0  0  0  0
    2.3293   -0.4477   -2.0363 O   0  0  0  0  0  0  0  0  0  0  0  0
    1.8646   -3.8692   -2.6485 O   0  0  0  0  0  0  0  0  0  0  0  0
    0.2998   -2.6398   -0.1281 O   0  0  0  0  0  0  0  0  0  0  0  0
    3.7959   -2.7477    0.4161 O   0  0  0  0  0  0  0  0  0  0  0  0
   -0.1066   -0.3009   -2.4673 H   0  0  0  0  0  0  0  0  0  0  0  0
    1.7229   -1.6651   -3.5004 H   0  0  0  0  0  0  0  0  0  0  0  0
    3.2074   -2.6988   -1.7325 H   0  0  0  0  0  0  0  0  0  0  0  0
    1.6071   -4.1398   -0.2467 H   0  0  0  0  0  0  0  0  0  0  0  0
    2.1851   -2.8672    1.6081 H   0  0  0  0  0  0  0  0  0  0  0  0
    2.2834   -1.3342    0.7321 H   0  0  0  0  0  0  0  0  0  0  0  0
   -1.3804   -2.0388   -0.8563 H   0  0  0  0  0  0  0  0  0  0  0  0
   -0.3805   -3.1128   -2.9932 H   0  0  0  0  0  0  0  0  0  0  0  0
    2.0148    0.3538   -2.5079 H   0  0  0  0  0  0  0  0  0  0  0  0
    2.5478   -4.5613   -2.4796 H   0  0  0  0  0  0  0  0  0  0  0  0
   -3.7747    3.4965    2.6637 H   0  0  0  0  0  0  0  0  0  0  0  0
   -1.8247    1.6110    3.6557 H   0  0  0  0  0  0  0  0  0  0  0  0
   -2.7628    0.1770   -3.2145 H   0  0  0  0  0  0  0  0  0  0  0  0
    4.3694   -1.9594    0.5912 H   0  0  0  0  0  0  0  0  0  0  0  0
  1  2  1  0
  1  7  1  0
  1 11  1  0
  1 13  1  6
  2  3  1  0
  2  8  1  0
  2 14  1  1
  3  4  1  0
  3  9  1  0
  3 15  1  1
  4  5  1  0
  4 10  1  0
  4 16  1  6
  5  6  1  0
  5 11  1  0
  5 17  1  6
  6 12  1  0
  6 18  1  6
  6 19  1  0
  9 20  1  0
 10 26  1  0
 21 22  1  0
 21 26  1  0
 21 27  1  0
 21 32  1  6
 22 23  1  0
 22 28  1  0
 22 33  1  6
 23 24  1  0
 23 29  1  0
 23 34  1  1
 24 25  1  0
 24 30  1  0
 24 35  1  1
 25 31  1  0
 25 36  1  1
 25 37  1  0
 26 30  1  0
 26 38  1  6
 27 39  1  0
 28 40  1  0
 29 41  1  0
  7 42  1  0
  8 43  1  0
 12 44  1  0
 31 45  1  0
M  END
$$$$
GLUCANASE
     RDKit          3D

 45 46  0  0  0  0  0  0  0  0999 V2000
    3.1517    0.8164   -1.0653 C   0  0  1  0  0  0  0  0  0  0  0  0
    1.8192    0.3464   -1.6053 C   0  0  1  0  0  0  0  0  0  0  0  0
    1.6926   -1.1079   -1.1340 C   0  0  2  0  0  0  0  0  0  0  0  0
    1.4142   -0.9925    0.3560 C   0  0  1  0  0  0  0  0  0  0  0  0
    2.5441   -0.2179    0.9339 C   0  0  1  0  0  0  0  0  0  0  0  0
    3.2275   -1.0938    1.9834 C   0  0  2  0  0  0  0  0  0  0  0  0
    3.1379    2.1909   -1.0062 O   0  0  0  0  0  0  0  0  0  0  0  0
    0.7802    1.1368   -1.1013 O   0  0  0  0  0  0  0  0  0  0  0  0
    2.9327   -1.6908   -1.3432 O   0  0  0  0  0  0  0  0  0  0  0  0
    0.1628   -0.4353    0.4697 O   0  0  0  0  0  0  0  0  0  0  0  0
    3.5335    0.1739    0.0855 O   0  0  0  0  0  0  0  0  0  0  0  0
    3.8470   -2.2036    1.4507 O   0  0  0  0  0  0  0  0  0  0  0  0
    3.8909    0.5264   -1.8441 H   0  0  0  0  0  0  0  0  0  0  0  0
    1.7448    0.3814   -2.7065 H   0  0  0  0  0  0  0  0  0  0  0  0
    0.8813   -1.6288   -1.6679 H   0  0  0  0  0  0  0  0  0  0  0  0
    1.4293   -2.0710    0.6969 H   0  0  0  0  0  0  0  0  0  0  0  0
    2.2261    0.6853    1.4992 H   0  0  0  0  0  0  0  0  0  0  0  0
    2.5280   -1.3823    2.8028 H   0  0  0  0  0  0  0  0  0  0  0  0
    4.0318   -0.5153    2.5141 H   0  0  0  0  0  0  0  0  0  0  0  0
    3.3441   -1.4691   -2.2083 H   0  0  0  0  0  0  0  0  0  0  0  0
   -1.3103   -0.7871    2.2922 C   0  0  2  0  0  0  0  0  0  0  0  0
   -2.5421    0.0488    2.2332 C   0  0  2  0  0  0  0  0  0  0  0  0
   -2.9551    0.4049    0.8281 C   0  0  1  0  0  0  0  0  0  0  0  0
   -2.8144   -0.7311   -0.1275 C   0  0  1  0  0  0  0  0  0  0  0  0
   -2.7612   -0.0845   -1.5162 C   0  0  2  0  0  0  0  0  0  0  0  0
   -0.8134   -1.2828    0.9687 C   0  0  1  0  0  0  0  0  0  0  0  0
   -1.5929   -1.9035    3.0866 O   0  0  0  0  0  0  0  0  0  0  0  0
   -2.3693    1.2575    2.9072 O   0  0  0  0  0  0  0  0  0  0  0  0
   -4.3154    0.7542    0.8879 O   0  0  0  0  0  0  0  0  0  0  0  0
   -1.7231   -1.5159   -0.0009 O   0  0  0  0  0  0  0  0  0  0  0  0
   -3.8854    0.7263   -1.6523 O   0  0  0  0  0  0  0  0  0  0  0  0
   -0.5397   -0.2279    2.8588 H   0  0  0  0  0  0  0  0  0  0  0  0
   -3.4130   -0.4397    2.7337 H   0  0  0  0  0  0  0  0  0  0  0  0
   -2.4079    1.2976    0.5024 H   0  0  0  0  0  0  0  0  0  0  0  0
   -3.7823   -1.3071   -0.1416 H   0  0  0  0  0  0  0  0  0  0  0  0
   -2.6206   -0.8066   -2.3229 H   0  0  0  0  0  0  0  0  0  0  0  0
   -1.8828    0.5944   -1.5119 H   0  0  0  0  0  0  0  0  0  0  0  0
   -0.2851   -2.2477    1.1535 H   0  0  0  0  0  0  0  0  0  0  0  0
   -1.1816   -2.7355    2.7711 H   0  0  0  0  0  0  0  0  0  0  0  0
   -1.7671    1.0953    3.6871 H   0  0  0  0  0  0  0  0  0  0  0  0
   -4.8228   -0.0782    1.1159 H   0  0  0  0  0  0  0  0  0  0  0  0
    2.2795    2.5974   -1.2604 H   0  0  0  0  0  0  0  0  0  0  0  0
    0.3012    1.6225   -1.7922 H   0  0  0  0  0  0  0  0  0  0  0  0
    4.8162   -2.2828    1.6617 H   0  0  0  0  0  0  0  0  0  0  0  0
   -3.6698    1.3402   -2.4116 H   0  0  0  0  0  0  0  0  0  0  0  0
  1  2  1  0
  1  7  1  0
  1 11  1  0
  1 13  1  6
  2  3  1  0
  2  8  1  0
  2 14  1  6
  3  4  1  0
  3  9  1  0
  3 15  1  6
  4  5  1  0
  4 10  1  0
  4 16  1  1
  5  6  1  0
  5 11  1  0
  5 17  1  1
  6 12  1  0
  6 18  1  1
  6 19  1  0
  9 20  1  0
 10 26  1  0
 21 22  1  0
 21 26  1  0
 21 27  1  0
 21 32  1  1
 22 23  1  0
 22 28  1  0
 22 33  1  1
 23 24  1  0
 23 29  1  0
 23 34  1  6
 24 25  1  0
 24 30  1  0
 24 35  1  6
 25 31  1  0
 25 36  1  6
 25 37  1  0
 26 30  1  0
 26 38  1  1
 27 39  1  0
 28 40  1  0
 29 41  1  0
  7 42  1  0
  8 43  1  0
 12 44  1  0
 31 45  1  0
M  END
$$$$
GLUCANASE
     RDKit          3D

 45 46  0  0  0  0  0  0  0  0999 V2000
   -0.6467    2.2595    1.9031 C   0  0  1  0  0  0  0  0  0  0  0  0
   -0.5504    0.8397    2.3828 C   0  0  1  0  0  0  0  0  0  0  0  0
   -1.2089   -0.0352    1.3590 C   0  0  2  0  0  0  0  0  0  0  0  0
   -0.7602    0.2366   -0.0518 C   0  0  1  0  0  0  0  0  0  0  0  0
   -0.5166    1.6782   -0.3519 C   0  0  1  0  0  0  0  0  0  0  0  0
   -1.7332    2.3235   -1.0311 C   0  0  2  0  0  0  0  0  0  0  0  0
    0.0020    3.1477    2.7914 O   0  0  0  0  0  0  0  0  0  0  0  0
    0.7309    0.4426    2.7132 O   0  0  0  0  0  0  0  0  0  0  0  0
   -2.5909    0.1120    1.4990 O   0  0  0  0  0  0  0  0  0  0  0  0
    0.2716   -0.6143   -0.4479 O   0  0  0  0  0  0  0  0  0  0  0  0
   -0.0489    2.4217    0.6908 O   0  0  0  0  0  0  0  0  0  0  0  0
   -2.7994    2.4985   -0.1922 O   0  0  0  0  0  0  0  0  0  0  0  0
   -1.7235    2.5389    1.9549 H   0  0  0  0  0  0  0  0  0  0  0  0
   -1.1383    0.7659    3.3238 H   0  0  0  0  0  0  0  0  0  0  0  0
   -0.9970   -1.1044    1.5771 H   0  0  0  0  0  0  0  0  0  0  0  0
   -1.6256   -0.0762   -0.6843 H   0  0  0  0  0  0  0  0  0  0  0  0
    0.2739    1.7179   -1.1335 H   0  0  0  0  0  0  0  0  0  0  0  0
   -2.0315    1.6248   -1.8400 H   0  0  0  0  0  0  0  0  0  0  0  0
   -1.4415    3.2618   -1.5389 H   0  0  0  0  0  0  0  0  0  0  0  0
   -2.8306    0.6879    2.2548 H   0  0  0  0  0  0  0  0  0  0  0  0
    0.9905   -1.3615   -2.5264 C   0  0  2  0  0  0  0  0  0  0  0  0
    0.8251   -2.4211   -3.5602 C   0  0  2  0  0  0  0  0  0  0  0  0
   -0.1799   -3.4805   -3.2287 C   0  0  1  0  0  0  0  0  0  0  0  0
   -0.3054   -3.7896   -1.7806 C   0  0  1  0  0  0  0  0  0  0  0  0
    0.4645   -5.0579   -1.4321 C   0  0  2  0  0  0  0  0  0  0  0  0
   -0.0631   -1.5158   -1.4261 C   0  0  1  0  0  0  0  0  0  0  0  0
    0.9547   -0.0985   -3.0847 O   0  0  0  0  0  0  0  0  0  0  0  0
    2.0845   -3.0163   -3.7954 O   0  0  0  0  0  0  0  0  0  0  0  0
   -1.4185   -3.1109   -3.7974 O   0  0  0  0  0  0  0  0  0  0  0  0
    0.1259   -2.8015   -0.9262 O   0  0  0  0  0  0  0  0  0  0  0  0
    0.2247   -5.4325   -0.1119 O   0  0  0  0  0  0  0  0  0  0  0  0
    1.9646   -1.5126   -1.9742 H   0  0  0  0  0  0  0  0  0  0  0  0
    0.5789   -1.9303   -4.5321 H   0  0  0  0  0  0  0  0  0  0  0  0
    0.1193   -4.4095   -3.7642 H   0  0  0  0  0  0  0  0  0  0  0  0
   -1.3715   -4.0030   -1.5571 H   0  0  0  0  0  0  0  0  0  0  0  0
    1.5446   -4.9724   -1.6678 H   0  0  0  0  0  0  0  0  0  0  0  0
    0.1102   -5.9177   -2.0603 H   0  0  0  0  0  0  0  0  0  0  0  0
   -1.0879   -1.4781   -1.7915 H   0  0  0  0  0  0  0  0  0  0  0  0
    1.6438    0.4490   -2.6436 H   0  0  0  0  0  0  0  0  0  0  0  0
    2.8268   -2.4611   -3.4731 H   0  0  0  0  0  0  0  0  0  0  0  0
   -1.2262   -2.8422   -4.7426 H   0  0  0  0  0  0  0  0  0  0  0  0
    0.9453    3.2957    2.5230 H   0  0  0  0  0  0  0  0  0  0  0  0
    1.3122    0.2233    1.9425 H   0  0  0  0  0  0  0  0  0  0  0  0
   -3.6784    2.3031   -0.6168 H   0  0  0  0  0  0  0  0  0  0  0  0
   -0.7547   -5.5877   -0.0455 H   0  0  0  0  0  0  0  0  0  0  0  0
  1  2  1  0
  1  7  1  0
  1 11  1  0
  1 13  1  6
  2  3  1  0
  2  8  1  0
  2 14  1  1
  3  4  1  0
  3  9  1  0
  3 15  1  1
  4  5  1  0
  4 10  1  0
  4 16  1  6
  5  6  1  0
  5 11  1  0
  5 17  1  6
  6 12  1  0
  6 18  1  6
  6 19  1  0
  9 20  1  0
 10 26  1  0
 21 22  1  0
 21 26  1  0
 21 27  1  0
 21 32  1  1
 22 23  1  0
 22 28  1  0
 22 33  1  6
 23 24  1  0
 23 29  1  0
 23 34  1  6
 24 25  1  0
 24 30  1  0
 24 35  1  1
 25 31  1  0
 25 36  1  1
 25 37  1  0
 26 30  1  0
 26 38  1  6
 27 39  1  0
 28 40  1  0
 29 41  1  0
  7 42  1  0
  8 43  1  0
 12 44  1  0
 31 45  1  0
M  END
$$$$
GLUCANASE
     RDKit          3D

 45 46  0  0  0  0  0  0  0  0999 V2000
   -0.8016   -3.8988    0.7527 C   0  0  1  0  0  0  0  0  0  0  0  0
   -0.3779   -3.4222   -0.6156 C   0  0  1  0  0  0  0  0  0  0  0  0
   -0.7273   -1.9551   -0.7669 C   0  0  2  0  0  0  0  0  0  0  0  0
   -0.7600   -1.2834    0.6273 C   0  0  1  0  0  0  0  0  0  0  0  0
    0.2504   -1.9752    1.4675 C   0  0  1  0  0  0  0  0  0  0  0  0
    0.5242   -1.2564    2.7636 C   0  0  2  0  0  0  0  0  0  0  0  0
   -0.5346   -5.2737    0.8262 O   0  0  0  0  0  0  0  0  0  0  0  0
    0.9646   -3.6611   -0.8165 O   0  0  0  0  0  0  0  0  0  0  0  0
   -2.0068   -1.8743   -1.3033 O   0  0  0  0  0  0  0  0  0  0  0  0
   -0.4214    0.0282    0.3997 O   0  0  0  0  0  0  0  0  0  0  0  0
   -0.1179   -3.2808    1.7924 O   0  0  0  0  0  0  0  0  0  0  0  0
   -0.6200   -1.2522    3.5243 O   0  0  0  0  0  0  0  0  0  0  0  0
   -1.8739   -3.7680    0.9171 H   0  0  0  0  0  0  0  0  0  0  0  0
   -0.9483   -4.0353   -1.3434 H   0  0  0  0  0  0  0  0  0  0  0  0
    0.0261   -1.4945   -1.4102 H   0  0  0  0  0  0  0  0  0  0  0  0
   -1.7776   -1.4428    1.0412 H   0  0  0  0  0  0  0  0  0  0  0  0
    1.2379   -1.9830    0.9194 H   0  0  0  0  0  0  0  0  0  0  0  0
    1.0115   -0.2837    2.6182 H   0  0  0  0  0  0  0  0  0  0  0  0
    1.2597   -1.9167    3.3206 H   0  0  0  0  0  0  0  0  0  0  0  0
   -2.4834   -2.7593   -1.3214 H   0  0  0  0  0  0  0  0  0  0  0  0
   -1.0447    1.9118    1.7402 C   0  0  2  0  0  0  0  0  0  0  0  0
    0.0248    2.8853    1.3290 C   0  0  2  0  0  0  0  0  0  0  0  0
    0.0495    2.8720   -0.1975 C   0  0  1  0  0  0  0  0  0  0  0  0
   -1.4051    2.8531   -0.6121 C   0  0  1  0  0  0  0  0  0  0  0  0
   -1.5896    3.4196   -1.9977 C   0  0  2  0  0  0  0  0  0  0  0  0
   -1.4209    0.9491    0.6684 C   0  0  1  0  0  0  0  0  0  0  0  0
   -2.1808    2.6190    2.2022 O   0  0  0  0  0  0  0  0  0  0  0  0
    1.2705    2.5819    1.8592 O   0  0  0  0  0  0  0  0  0  0  0  0
    0.7060    4.0013   -0.6870 O   0  0  0  0  0  0  0  0  0  0  0  0
   -1.8811    1.5724   -0.4889 O   0  0  0  0  0  0  0  0  0  0  0  0
   -1.0612    4.7144   -1.9635 O   0  0  0  0  0  0  0  0  0  0  0  0
   -0.6894    1.3596    2.6239 H   0  0  0  0  0  0  0  0  0  0  0  0
   -0.2743    3.8939    1.6337 H   0  0  0  0  0  0  0  0  0  0  0  0
    0.5417    1.9367   -0.5234 H   0  0  0  0  0  0  0  0  0  0  0  0
   -2.0280    3.5110    0.0559 H   0  0  0  0  0  0  0  0  0  0  0  0
   -2.6932    3.5656   -2.1243 H   0  0  0  0  0  0  0  0  0  0  0  0
   -1.1864    2.8093   -2.8024 H   0  0  0  0  0  0  0  0  0  0  0  0
   -2.2892    0.3496    1.0302 H   0  0  0  0  0  0  0  0  0  0  0  0
   -2.6931    2.0555    2.8487 H   0  0  0  0  0  0  0  0  0  0  0  0
    1.4004    3.1508    2.6563 H   0  0  0  0  0  0  0  0  0  0  0  0
    1.6831    3.7683   -0.7418 H   0  0  0  0  0  0  0  0  0  0  0  0
    0.3785   -5.4634    1.1523 H   0  0  0  0  0  0  0  0  0  0  0  0
    1.0855   -4.5639   -1.1578 H   0  0  0  0  0  0  0  0  0  0  0  0
   -0.4890   -1.2922    4.4912 H   0  0  0  0  0  0  0  0  0  0  0  0
   -0.3431    4.8441   -2.6287 H   0  0  0  0  0  0  0  0  0  0  0  0
  1  2  1  0
  1  7  1  0
  1 11  1  0
  1 13  1  1
  2  3  1  0
  2  8  1  0
  2 14  1  6
  3  4  1  0
  3  9  1  0
  3 15  1  6
  4  5  1  0
  4 10  1  0
  4 16  1  1
  5  6  1  0
  5 11  1  0
  5 17  1  6
  6 12  1  0
  6 18  1  6
  6 19  1  0
  9 20  1  0
 10 26  1  0
 21 22  1  0
 21 26  1  0
 21 27  1  0
 21 32  1  1
 22 23  1  0
 22 28  1  0
 22 33  1  6
 23 24  1  0
 23 29  1  0
 23 34  1  1
 24 25  1  0
 24 30  1  0
 24 35  1  1
 25 31  1  0
 25 36  1  6
 25 37  1  0
 26 30  1  0
 26 38  1  1
 27 39  1  0
 28 40  1  0
 29 41  1  0
  7 42  1  0
  8 43  1  0
 12 44  1  0
 31 45  1  0
M  END
$$$$
GLUCANASE
     RDKit          3D

 45 46  0  0  0  0  0  0  0  0999 V2000
   -2.4135   -2.1119    1.9371 C   0  0  1  0  0  0  0  0  0  0  0  0
   -2.0238   -0.7043    2.2430 C   0  0  1  0  0  0  0  0  0  0  0  0
   -0.5288   -0.5658    2.4372 C   0  0  2  0  0  0  0  0  0  0  0  0
    0.1673   -1.3369    1.3334 C   0  0  1  0  0  0  0  0  0  0  0  0
   -0.2861   -2.7598    1.3105 C   0  0  1  0  0  0  0  0  0  0  0  0
    0.8510   -3.6363    1.8111 C   0  0  2  0  0  0  0  0  0  0  0  0
   -2.9897   -2.2136    0.6646 O   0  0  0  0  0  0  0  0  0  0  0  0
   -2.4409    0.1163    1.1764 O   0  0  0  0  0  0  0  0  0  0  0  0
   -0.2159   -1.1847    3.6397 O   0  0  0  0  0  0  0  0  0  0  0  0
   -0.0031   -0.6892    0.0922 O   0  0  0  0  0  0  0  0  0  0  0  0
   -1.3797   -3.0194    2.1091 O   0  0  0  0  0  0  0  0  0  0  0  0
    1.1731   -3.3678    3.1381 O   0  0  0  0  0  0  0  0  0  0  0  0
   -3.2079   -2.4172    2.6517 H   0  0  0  0  0  0  0  0  0  0  0  0
   -2.4929   -0.2891    3.1611 H   0  0  0  0  0  0  0  0  0  0  0  0
   -0.2191    0.4898    2.4235 H   0  0  0  0  0  0  0  0  0  0  0  0
    1.2598   -1.2671    1.5359 H   0  0  0  0  0  0  0  0  0  0  0  0
   -0.4557   -3.0620    0.2556 H   0  0  0  0  0  0  0  0  0  0  0  0
    1.7987   -3.4328    1.2381 H   0  0  0  0  0  0  0  0  0  0  0  0
    0.5954   -4.7162    1.7734 H   0  0  0  0  0  0  0  0  0  0  0  0
   -0.6693   -0.6693    4.3476 H   0  0  0  0  0  0  0  0  0  0  0  0
    1.4674   -0.8328   -1.7719 C   0  0  2  0  0  0  0  0  0  0  0  0
    0.1829   -0.7201   -2.5589 C   0  0  2  0  0  0  0  0  0  0  0  0
   -0.4507    0.6092   -2.2385 C   0  0  1  0  0  0  0  0  0  0  0  0
    0.5400    1.6084   -1.6961 C   0  0  1  0  0  0  0  0  0  0  0  0
   -0.2414    2.8357   -1.2747 C   0  0  2  0  0  0  0  0  0  0  0  0
    1.2076   -0.2138   -0.4147 C   0  0  1  0  0  0  0  0  0  0  0  0
    2.4183   -0.0767   -2.4819 O   0  0  0  0  0  0  0  0  0  0  0  0
   -0.6658   -1.7484   -2.1527 O   0  0  0  0  0  0  0  0  0  0  0  0
   -0.9611    1.1359   -3.4257 O   0  0  0  0  0  0  0  0  0  0  0  0
    1.2204    1.1658   -0.5921 O   0  0  0  0  0  0  0  0  0  0  0  0
    0.5987    3.8452   -0.8067 O   0  0  0  0  0  0  0  0  0  0  0  0
    1.8017   -1.8931   -1.6712 H   0  0  0  0  0  0  0  0  0  0  0  0
    0.3602   -0.8665   -3.6441 H   0  0  0  0  0  0  0  0  0  0  0  0
   -1.2711    0.5433   -1.5218 H   0  0  0  0  0  0  0  0  0  0  0  0
    1.2081    1.9505   -2.5234 H   0  0  0  0  0  0  0  0  0  0  0  0
   -0.9172    2.5724   -0.4152 H   0  0  0  0  0  0  0  0  0  0  0  0
   -0.9102    3.2292   -2.0668 H   0  0  0  0  0  0  0  0  0  0  0  0
    2.0411   -0.4587    0.2873 H   0  0  0  0  0  0  0  0  0  0  0  0
    2.2932   -0.2441   -3.4597 H   0  0  0  0  0  0  0  0  0  0  0  0
   -0.2359   -2.6302   -2.2448 H   0  0  0  0  0  0  0  0  0  0  0  0
   -1.8958    0.7827   -3.5253 H   0  0  0  0  0  0  0  0  0  0  0  0
   -2.7685   -3.0726    0.2314 H   0  0  0  0  0  0  0  0  0  0  0  0
   -2.9276    0.9195    1.4937 H   0  0  0  0  0  0  0  0  0  0  0  0
    0.7025   -3.9185    3.7929 H   0  0  0  0  0  0  0  0  0  0  0  0
    0.9963    3.5893    0.0647 H   0  0  0  0  0  0  0  0  0  0  0  0
  1  2  1  0
  1  7  1  0
  1 11  1  0
  1 13  1  1
  2  3  1  0
  2  8  1  0
  2 14  1  1
  3  4  1  0
  3  9  1  0
  3 15  1  1
  4  5  1  0
  4 10  1  0
  4 16  1  1
  5  6  1  0
  5 11  1  0
  5 17  1  6
  6 12  1  0
  6 18  1  6
  6 19  1  0
  9 20  1  0
 10 26  1  0
 21 22  1  0
 21 26  1  0
 21 27  1  0
 21 32  1  1
 22 23  1  0
 22 28  1  0
 22 33  1  6
 23 24  1  0
 23 29  1  0
 23 34  1  1
 24 25  1  0
 24 30  1  0
 24 35  1  6
 25 31  1  0
 25 36  1  1
 25 37  1  0
 26 30  1  0
 26 38  1  1
 27 39  1  0
 28 40  1  0
 29 41  1  0
  7 42  1  0
  8 43  1  0
 12 44  1  0
 31 45  1  0
M  END
$$$$
GLUCANASE
     RDKit          3D

 45 46  0  0  0  0  0  0  0  0999 V2000
   -2.8315    2.9738   -0.7471 C   0  0  1  0  0  0  0  0  0  0  0  0
   -2.1658    2.5924   -2.0302 C   0  0  1  0  0  0  0  0  0  0  0  0
   -0.9074    1.8111   -1.8569 C   0  0  2  0  0  0  0  0  0  0  0  0
   -0.4216    1.7761   -0.4249 C   0  0  1  0  0  0  0  0  0  0  0  0
   -0.7595    3.0147    0.3180 C   0  0  1  0  0  0  0  0  0  0  0  0
    0.1913    4.1122   -0.1843 C   0  0  2  0  0  0  0  0  0  0  0  0
   -3.6222    1.8810   -0.3328 O   0  0  0  0  0  0  0  0  0  0  0  0
   -3.0773    1.8035   -2.7435 O   0  0  0  0  0  0  0  0  0  0  0  0
    0.0399    2.4355   -2.6995 O   0  0  0  0  0  0  0  0  0  0  0  0
   -0.6810    0.5761    0.1783 O   0  0  0  0  0  0  0  0  0  0  0  0
   -2.0336    3.4836    0.2247 O   0  0  0  0  0  0  0  0  0  0  0  0
    0.0815    5.2756    0.5673 O   0  0  0  0  0  0  0  0  0  0  0  0
   -3.5962    3.7600   -0.9968 H   0  0  0  0  0  0  0  0  0  0  0  0
   -2.0599    3.5231   -2.6301 H   0  0  0  0  0  0  0  0  0  0  0  0
   -1.0013    0.7808   -2.2534 H   0  0  0  0  0  0  0  0  0  0  0  0
    0.7097    1.7703   -0.5080 H   0  0  0  0  0  0  0  0  0  0  0  0
   -0.5051    2.8724    1.3894 H   0  0  0  0  0  0  0  0  0  0  0  0
   -0.0471    4.3019   -1.2721 H   0  0  0  0  0  0  0  0  0  0  0  0
    1.2376    3.7343   -0.1954 H   0  0  0  0  0  0  0  0  0  0  0  0
   -0.0815    2.1733   -3.6297 H   0  0  0  0  0  0  0  0  0  0  0  0
    0.3630   -0.4310    1.9920 C   0  0  2  0  0  0  0  0  0  0  0  0
   -0.5926   -1.5211    2.4013 C   0  0  2  0  0  0  0  0  0  0  0  0
   -0.1388   -2.8121    1.7631 C   0  0  1  0  0  0  0  0  0  0  0  0
    0.6323   -2.5307    0.5034 C   0  0  1  0  0  0  0  0  0  0  0  0
    0.4024   -3.7310   -0.4199 C   0  0  2  0  0  0  0  0  0  0  0  0
    0.3566   -0.2270    0.4896 C   0  0  1  0  0  0  0  0  0  0  0  0
    1.6463   -0.6397    2.4817 O   0  0  0  0  0  0  0  0  0  0  0  0
   -1.8341   -1.2217    1.8418 O   0  0  0  0  0  0  0  0  0  0  0  0
    0.7472   -3.4047    2.6747 O   0  0  0  0  0  0  0  0  0  0  0  0
    0.2053   -1.4314   -0.1997 O   0  0  0  0  0  0  0  0  0  0  0  0
    0.7922   -4.9253    0.1638 O   0  0  0  0  0  0  0  0  0  0  0  0
   -0.0013    0.5161    2.4417 H   0  0  0  0  0  0  0  0  0  0  0  0
   -0.6525   -1.5464    3.4883 H   0  0  0  0  0  0  0  0  0  0  0  0
   -0.9551   -3.5123    1.5726 H   0  0  0  0  0  0  0  0  0  0  0  0
    1.7239   -2.5417    0.7014 H   0  0  0  0  0  0  0  0  0  0  0  0
    0.9612   -3.6203   -1.3632 H   0  0  0  0  0  0  0  0  0  0  0  0
   -0.6830   -3.7325   -0.6904 H   0  0  0  0  0  0  0  0  0  0  0  0
    1.3632    0.1411    0.2342 H   0  0  0  0  0  0  0  0  0  0  0  0
    1.5873   -0.5277    3.4599 H   0  0  0  0  0  0  0  0  0  0  0  0
   -2.2916   -2.0484    1.5002 H   0  0  0  0  0  0  0  0  0  0  0  0
    0.7411   -4.4043    2.5599 H   0  0  0  0  0  0  0  0  0  0  0  0
   -3.4402    1.0682   -0.8774 H   0  0  0  0  0  0  0  0  0  0  0  0
   -2.7852    0.8560   -2.8019 H   0  0  0  0  0  0  0  0  0  0  0  0
    0.8999    5.3238    1.1344 H   0  0  0  0  0  0  0  0  0  0  0  0
    1.7745   -4.9295    0.1978 H   0  0  0  0  0  0  0  0  0  0  0  0
  1  2  1  0
  1  7  1  0
  1 11  1  0
  1 13  1  6
  2  3  1  0
  2  8  1  0
  2 14  1  6
  3  4  1  0
  3  9  1  0
  3 15  1  6
  4  5  1  0
  4 10  1  0
  4 16  1  6
  5  6  1  0
  5 11  1  0
  5 17  1  1
  6 12  1  0
  6 18  1  6
  6 19  1  0
  9 20  1  0
 10 26  1  0
 21 22  1  0
 21 26  1  0
 21 27  1  0
 21 32  1  1
 22 23  1  0
 22 28  1  0
 22 33  1  1
 23 24  1  0
 23 29  1  0
 23 34  1  6
 24 25  1  0
 24 30  1  0
 24 35  1  1
 25 31  1  0
 25 36  1  6
 25 37  1  0
 26 30  1  0
 26 38  1  6
 27 39  1  0
 28 40  1  0
 29 41  1  0
  7 42  1  0
  8 43  1  0
 12 44  1  0
 31 45  1  0
M  END
$$$$
GLUCANASE
     RDKit          3D

 45 46  0  0  0  0  0  0  0  0999 V2000
    0.9443   -2.7807    0.2893 C   0  0  1  0  0  0  0  0  0  0  0  0
   -0.4287   -3.2360   -0.0548 C   0  0  1  0  0  0  0  0  0  0  0  0
   -1.4434   -2.1459   -0.1567 C   0  0  2  0  0  0  0  0  0  0  0  0
   -0.8682   -0.8246    0.3200 C   0  0  1  0  0  0  0  0  0  0  0  0
   -0.0106   -1.0436    1.5275 C   0  0  1  0  0  0  0  0  0  0  0  0
   -0.7778   -1.4446    2.7510 C   0  0  2  0  0  0  0  0  0  0  0  0
    1.6939   -2.4252   -0.8565 O   0  0  0  0  0  0  0  0  0  0  0  0
   -0.3575   -3.8684   -1.3147 O   0  0  0  0  0  0  0  0  0  0  0  0
   -2.6344   -2.4508    0.5234 O   0  0  0  0  0  0  0  0  0  0  0  0
   -0.0383   -0.3788   -0.7138 O   0  0  0  0  0  0  0  0  0  0  0  0
    1.0667   -1.8353    1.2578 O   0  0  0  0  0  0  0  0  0  0  0  0
   -1.8766   -0.5873    2.9728 O   0  0  0  0  0  0  0  0  0  0  0  0
    1.5025   -3.6847    0.6724 H   0  0  0  0  0  0  0  0  0  0  0  0
   -0.7221   -4.0506    0.6389 H   0  0  0  0  0  0  0  0  0  0  0  0
   -1.7496   -1.9586   -1.2131 H   0  0  0  0  0  0  0  0  0  0  0  0
   -1.6731   -0.0948    0.5135 H   0  0  0  0  0  0  0  0  0  0  0  0
    0.4212   -0.0295    1.7817 H   0  0  0  0  0  0  0  0  0  0  0  0
   -0.0899   -1.3965    3.6193 H   0  0  0  0  0  0  0  0  0  0  0  0
   -1.1947   -2.4649    2.6989 H   0  0  0  0  0  0  0  0  0  0  0  0
   -3.4170   -2.5194   -0.0705 H   0  0  0  0  0  0  0  0  0  0  0  0
    0.6739    1.8255   -1.0027 C   0  0  2  0  0  0  0  0  0  0  0  0
    0.6674    3.0036   -1.9167 C   0  0  2  0  0  0  0  0  0  0  0  0
   -0.6606    3.1227   -2.5973 C   0  0  1  0  0  0  0  0  0  0  0  0
   -1.1798    1.8472   -3.1639 C   0  0  1  0  0  0  0  0  0  0  0  0
   -0.9378    1.7252   -4.6534 C   0  0  2  0  0  0  0  0  0  0  0  0
   -0.4274    0.8395   -1.2228 C   0  0  1  0  0  0  0  0  0  0  0  0
    0.5492    2.3095    0.3155 O   0  0  0  0  0  0  0  0  0  0  0  0
    1.7275    2.9711   -2.8421 O   0  0  0  0  0  0  0  0  0  0  0  0
   -1.5909    3.7445   -1.7889 O   0  0  0  0  0  0  0  0  0  0  0  0
   -0.7874    0.6956   -2.5516 O   0  0  0  0  0  0  0  0  0  0  0  0
   -1.3467    2.9205   -5.2717 O   0  0  0  0  0  0  0  0  0  0  0  0
    1.6794    1.3563   -1.0532 H   0  0  0  0  0  0  0  0  0  0  0  0
    0.8199    3.9711   -1.3557 H   0  0  0  0  0  0  0  0  0  0  0  0
   -0.5088    3.8191   -3.4736 H   0  0  0  0  0  0  0  0  0  0  0  0
   -2.3048    1.8864   -3.0648 H   0  0  0  0  0  0  0  0  0  0  0  0
   -1.5777    0.9402   -5.1057 H   0  0  0  0  0  0  0  0  0  0  0  0
    0.1020    1.4958   -4.8920 H   0  0  0  0  0  0  0  0  0  0  0  0
   -1.3250    1.1574   -0.6617 H   0  0  0  0  0  0  0  0  0  0  0  0
    1.2943    2.0247    0.8990 H   0  0  0  0  0  0  0  0  0  0  0  0
    1.4506    3.5598   -3.5805 H   0  0  0  0  0  0  0  0  0  0  0  0
   -2.3782    3.1580   -1.6645 H   0  0  0  0  0  0  0  0  0  0  0  0
    2.5477   -2.0609   -0.4749 H   0  0  0  0  0  0  0  0  0  0  0  0
    0.4215   -3.5343   -1.8026 H   0  0  0  0  0  0  0  0  0  0  0  0
   -2.7441   -1.0641    2.8961 H   0  0  0  0  0  0  0  0  0  0  0  0
   -0.6309    3.2036   -5.8760 H   0  0  0  0  0  0  0  0  0  0  0  0
  1  2  1  0
  1  7  1  0
  1 11  1  0
  1 13  1  1
  2  3  1  0
  2  8  1  0
  2 14  1  1
  3  4  1  0
  3  9  1  0
  3 15  1  6
  4  5  1  0
  4 10  1  0
  4 16  1  1
  5  6  1  0
  5 11  1  0
  5 17  1  1
  6 12  1  0
  6 18  1  1
  6 19  1  0
  9 20  1  0
 10 26  1  0
 21 22  1  0
 21 26  1  0
 21 27  1  0
 21 32  1  1
 22 23  1  0
 22 28  1  0
 22 33  1  1
 23 24  1  0
 23 29  1  0
 23 34  1  6
 24 25  1  0
 24 30  1  0
 24 35  1  6
 25 31  1  0
 25 36  1  6
 25 37  1  0
 26 30  1  0
 26 38  1  1
 27 39  1  0
 28 40  1  0
 29 41  1  0
  7 42  1  0
  8 43  1  0
 12 44  1  0
 31 45  1  0
M  END
$$$$
GLUCANASE
     RDKit          3D

 45 46  0  0  0  0  0  0  0  0999 V2000
   -0.3501   -2.3073    2.8974 C   0  0  1  0  0  0  0  0  0  0  0  0
    0.1023   -3.0314    1.6793 C   0  0  1  0  0  0  0  0  0  0  0  0
   -0.1449   -2.3004    0.3772 C   0  0  2  0  0  0  0  0  0  0  0  0
   -0.3464   -0.7996    0.6564 C   0  0  1  0  0  0  0  0  0  0  0  0
    0.5872   -0.5070    1.7957 C   0  0  1  0  0  0  0  0  0  0  0  0
    0.9678    0.9244    1.9615 C   0  0  2  0  0  0  0  0  0  0  0  0
    0.3584   -2.8756    3.9789 O   0  0  0  0  0  0  0  0  0  0  0  0
    1.4057   -3.4932    1.7956 O   0  0  0  0  0  0  0  0  0  0  0  0
   -1.1783   -2.8289   -0.3725 O   0  0  0  0  0  0  0  0  0  0  0  0
   -0.1526   -0.0846   -0.4908 O   0  0  0  0  0  0  0  0  0  0  0  0
   -0.0775   -0.9539    2.9414 O   0  0  0  0  0  0  0  0  0  0  0  0
    1.6655    1.2958    0.8020 O   0  0  0  0  0  0  0  0  0  0  0  0
   -1.4412   -2.5065    3.0911 H   0  0  0  0  0  0  0  0  0  0  0  0
   -0.5354   -3.9571    1.6108 H   0  0  0  0  0  0  0  0  0  0  0  0
    0.7832   -2.3727   -0.2193 H   0  0  0  0  0  0  0  0  0  0  0  0
   -1.3953   -0.6496    1.0250 H   0  0  0  0  0  0  0  0  0  0  0  0
    1.5130   -1.1346    1.6293 H   0  0  0  0  0  0  0  0  0  0  0  0
    1.7000    1.0157    2.7871 H   0  0  0  0  0  0  0  0  0  0  0  0
    0.1420    1.5929    2.1952 H   0  0  0  0  0  0  0  0  0  0  0  0
   -0.8481   -3.3948   -1.1170 H   0  0  0  0  0  0  0  0  0  0  0  0
   -1.0546    2.0314   -1.0091 C   0  0  2  0  0  0  0  0  0  0  0  0
   -0.1201    2.1767   -2.2189 C   0  0  2  0  0  0  0  0  0  0  0  0
   -1.0339    1.9969   -3.4357 C   0  0  1  0  0  0  0  0  0  0  0  0
   -2.0164    0.9062   -3.1151 C   0  0  1  0  0  0  0  0  0  0  0  0
   -2.2666    0.1530   -4.4112 C   0  0  2  0  0  0  0  0  0  0  0  0
   -1.3417    0.5588   -0.9132 C   0  0  1  0  0  0  0  0  0  0  0  0
   -2.2198    2.7764   -1.2186 O   0  0  0  0  0  0  0  0  0  0  0  0
    0.7554    1.0821   -2.1466 O   0  0  0  0  0  0  0  0  0  0  0  0
   -1.6961    3.2169   -3.6396 O   0  0  0  0  0  0  0  0  0  0  0  0
   -1.5854    0.0038   -2.1805 O   0  0  0  0  0  0  0  0  0  0  0  0
   -1.0882   -0.4473   -4.8297 O   0  0  0  0  0  0  0  0  0  0  0  0
   -0.5488    2.4747   -0.1585 H   0  0  0  0  0  0  0  0  0  0  0  0
    0.4088    3.1293   -2.2379 H   0  0  0  0  0  0  0  0  0  0  0  0
   -0.4009    1.6893   -4.2703 H   0  0  0  0  0  0  0  0  0  0  0  0
   -3.0230    1.2806   -2.8051 H   0  0  0  0  0  0  0  0  0  0  0  0
   -2.5487    0.9426   -5.1617 H   0  0  0  0  0  0  0  0  0  0  0  0
   -3.1160   -0.5538   -4.3266 H   0  0  0  0  0  0  0  0  0  0  0  0
   -2.1727    0.3521   -0.2170 H   0  0  0  0  0  0  0  0  0  0  0  0
   -2.5689    3.0144   -0.3276 H   0  0  0  0  0  0  0  0  0  0  0  0
    0.8841    0.6440   -3.0241 H   0  0  0  0  0  0  0  0  0  0  0  0
   -1.0028    3.8635   -3.9258 H   0  0  0  0  0  0  0  0  0  0  0  0
    0.3442   -2.2192    4.7193 H   0  0  0  0  0  0  0  0  0  0  0  0
    1.4186   -4.2121    2.4837 H   0  0  0  0  0  0  0  0  0  0  0  0
    2.2836    0.5229    0.6338 H   0  0  0  0  0  0  0  0  0  0  0  0
   -1.2106   -0.8449   -5.7278 H   0  0  0  0  0  0  0  0  0  0  0  0
  1  2  1  0
  1  7  1  0
  1 11  1  0
  1 13  1  1
  2  3  1  0
  2  8  1  0
  2 14  1  6
  3  4  1  0
  3  9  1  0
  3 15  1  6
  4  5  1  0
  4 10  1  0
  4 16  1  1
  5  6  1  0
  5 11  1  0
  5 17  1  6
  6 12  1  0
  6 18  1  1
  6 19  1  0
  9 20  1  0
 10 26  1  0
 21 22  1  0
 21 26  1  0
 21 27  1  0
 21 32  1  1
 22 23  1  0
 22 28  1  0
 22 33  1  6
 23 24  1  0
 23 29  1  0
 23 34  1  6
 24 25  1  0
 24 30  1  0
 24 35  1  1
 25 31  1  0
 25 36  1  6
 25 37  1  0
 26 30  1  0
 26 38  1  1
 27 39  1  0
 28 40  1  0
 29 41  1  0
  7 42  1  0
  8 43  1  0
 12 44  1  0
 31 45  1  0
M  END
$$$$
GLUCANASE
     RDKit          3D

 45 46  0  0  0  0  0  0  0  0999 V2000
    2.6169    1.9772   -2.5453 C   0  0  1  0  0  0  0  0  0  0  0  0
    2.8353    0.9885   -1.4143 C   0  0  1  0  0  0  0  0  0  0  0  0
    1.5700    0.1230   -1.2905 C   0  0  2  0  0  0  0  0  0  0  0  0
    0.4665    1.0947   -0.9430 C   0  0  1  0  0  0  0  0  0  0  0  0
    0.3472    2.0564   -2.0558 C   0  0  1  0  0  0  0  0  0  0  0  0
    0.3197    3.5046   -1.6405 C   0  0  2  0  0  0  0  0  0  0  0  0
    3.4343    1.5920   -3.6036 O   0  0  0  0  0  0  0  0  0  0  0  0
    3.9623    0.2526   -1.6835 O   0  0  0  0  0  0  0  0  0  0  0  0
    1.7697   -0.8371   -0.3115 O   0  0  0  0  0  0  0  0  0  0  0  0
   -0.6828    0.3460   -0.7075 O   0  0  0  0  0  0  0  0  0  0  0  0
    1.3063    1.9083   -3.0117 O   0  0  0  0  0  0  0  0  0  0  0  0
   -0.6138    3.8015   -0.6694 O   0  0  0  0  0  0  0  0  0  0  0  0
    2.9385    2.9854   -2.2374 H   0  0  0  0  0  0  0  0  0  0  0  0
    2.9456    1.5416   -0.4743 H   0  0  0  0  0  0  0  0  0  0  0  0
    1.2962   -0.3269   -2.2681 H   0  0  0  0  0  0  0  0  0  0  0  0
    0.7100    1.5549    0.0402 H   0  0  0  0  0  0  0  0  0  0  0  0
   -0.6484    1.8706   -2.5466 H   0  0  0  0  0  0  0  0  0  0  0  0
   -0.0260    4.0516   -2.5612 H   0  0  0  0  0  0  0  0  0  0  0  0
    1.3203    3.9241   -1.4298 H   0  0  0  0  0  0  0  0  0  0  0  0
    1.0886   -1.5519   -0.5033 H   0  0  0  0  0  0  0  0  0  0  0  0
   -2.5610    0.8294    0.7607 C   0  0  2  0  0  0  0  0  0  0  0  0
   -2.7318    1.1703    2.2476 C   0  0  2  0  0  0  0  0  0  0  0  0
   -2.2737    0.0386    3.1166 C   0  0  1  0  0  0  0  0  0  0  0  0
   -1.1170   -0.7395    2.5903 C   0  0  1  0  0  0  0  0  0  0  0  0
   -1.2589   -2.1692    3.1298 C   0  0  2  0  0  0  0  0  0  0  0  0
   -1.1487    0.3902    0.5797 C   0  0  1  0  0  0  0  0  0  0  0  0
   -2.9641    1.9053    0.0190 O   0  0  0  0  0  0  0  0  0  0  0  0
   -4.0902    1.3864    2.5368 O   0  0  0  0  0  0  0  0  0  0  0  0
   -1.8945    0.5685    4.3608 O   0  0  0  0  0  0  0  0  0  0  0  0
   -1.0807   -0.8750    1.2097 O   0  0  0  0  0  0  0  0  0  0  0  0
   -0.1651   -2.9374    2.7189 O   0  0  0  0  0  0  0  0  0  0  0  0
   -3.2210   -0.0705    0.6205 H   0  0  0  0  0  0  0  0  0  0  0  0
   -2.2288    2.1283    2.4188 H   0  0  0  0  0  0  0  0  0  0  0  0
   -3.1360   -0.6472    3.2846 H   0  0  0  0  0  0  0  0  0  0  0  0
   -0.1216   -0.3460    2.8819 H   0  0  0  0  0  0  0  0  0  0  0  0
   -2.1466   -2.6632    2.7104 H   0  0  0  0  0  0  0  0  0  0  0  0
   -1.3145   -2.2085    4.2212 H   0  0  0  0  0  0  0  0  0  0  0  0
   -0.4893    1.0451    1.2019 H   0  0  0  0  0  0  0  0  0  0  0  0
   -3.9126    1.7312   -0.2629 H   0  0  0  0  0  0  0  0  0  0  0  0
   -4.6530    0.6331    2.2320 H   0  0  0  0  0  0  0  0  0  0  0  0
   -2.5249    1.2325    4.6988 H   0  0  0  0  0  0  0  0  0  0  0  0
    3.0765    0.7740   -4.0415 H   0  0  0  0  0  0  0  0  0  0  0  0
    3.7388   -0.4198   -2.3925 H   0  0  0  0  0  0  0  0  0  0  0  0
   -0.2678    4.4114    0.0461 H   0  0  0  0  0  0  0  0  0  0  0  0
   -0.2886   -3.1982    1.7767 H   0  0  0  0  0  0  0  0  0  0  0  0
  1  2  1  0
  1  7  1  0
  1 11  1  0
  1 13  1  1
  2  3  1  0
  2  8  1  0
  2 14  1  1
  3  4  1  0
  3  9  1  0
  3 15  1  6
  4  5  1  0
  4 10  1  0
  4 16  1  1
  5  6  1  0
  5 11  1  0
  5 17  1  6
  6 12  1  0
  6 18  1  6
  6 19  1  0
  9 20  1  0
 10 26  1  0
 21 22  1  0
 21 26  1  0
 21 27  1  0
 21 32  1  6
 22 23  1  0
 22 28  1  0
 22 33  1  1
 23 24  1  0
 23 29  1  0
 23 34  1  1
 24 25  1  0
 24 30  1  0
 24 35  1  1
 25 31  1  0
 25 36  1  6
 25 37  1  0
 26 30  1  0
 26 38  1  1
 27 39  1  0
 28 40  1  0
 29 41  1  0
  7 42  1  0
  8 43  1  0
 12 44  1  0
 31 45  1  0
M  END
$$$$
GLUCANASE
     RDKit          3D

 45 46  0  0  0  0  0  0  0  0999 V2000
    0.0089    3.2695   -0.2087 C   0  0  1  0  0  0  0  0  0  0  0  0
   -0.3166    2.5789   -1.4932 C   0  0  1  0  0  0  0  0  0  0  0  0
    0.4848    1.3758   -1.8047 C   0  0  2  0  0  0  0  0  0  0  0  0
    0.9617    0.6258   -0.5675 C   0  0  1  0  0  0  0  0  0  0  0  0
    1.4723    1.5923    0.4497 C   0  0  1  0  0  0  0  0  0  0  0  0
    2.7863    2.2217    0.1111 C   0  0  2  0  0  0  0  0  0  0  0  0
   -1.1387    3.8821    0.3029 O   0  0  0  0  0  0  0  0  0  0  0  0
   -1.6922    2.3262   -1.5129 O   0  0  0  0  0  0  0  0  0  0  0  0
    1.5178    1.6003   -2.7124 O   0  0  0  0  0  0  0  0  0  0  0  0
   -0.1798    0.0253   -0.0580 O   0  0  0  0  0  0  0  0  0  0  0  0
    0.4667    2.4513    0.7927 O   0  0  0  0  0  0  0  0  0  0  0  0
    2.7811    3.0946   -0.9419 O   0  0  0  0  0  0  0  0  0  0  0  0
    0.7472    4.0869   -0.3540 H   0  0  0  0  0  0  0  0  0  0  0  0
   -0.1490    3.3110   -2.3149 H   0  0  0  0  0  0  0  0  0  0  0  0
   -0.1960    0.6575   -2.3370 H   0  0  0  0  0  0  0  0  0  0  0  0
    1.7517   -0.0839   -0.8361 H   0  0  0  0  0  0  0  0  0  0  0  0
    1.6755    0.9774    1.3747 H   0  0  0  0  0  0  0  0  0  0  0  0
    3.5131    1.4218   -0.0542 H   0  0  0  0  0  0  0  0  0  0  0  0
    3.0823    2.8108    1.0261 H   0  0  0  0  0  0  0  0  0  0  0  0
    1.1815    1.6006   -3.6564 H   0  0  0  0  0  0  0  0  0  0  0  0
   -0.1843   -1.7073    1.4883 C   0  0  2  0  0  0  0  0  0  0  0  0
   -1.5990   -1.6857    2.0012 C   0  0  2  0  0  0  0  0  0  0  0  0
   -2.6022   -2.2252    0.9938 C   0  0  1  0  0  0  0  0  0  0  0  0
   -1.7913   -2.9409   -0.0750 C   0  0  1  0  0  0  0  0  0  0  0  0
   -2.7141   -3.6267   -1.0567 C   0  0  2  0  0  0  0  0  0  0  0  0
   -0.1279   -1.3395    0.0227 C   0  0  1  0  0  0  0  0  0  0  0  0
    0.4990   -2.8837    1.7630 O   0  0  0  0  0  0  0  0  0  0  0  0
   -1.9414   -0.3457    2.2213 O   0  0  0  0  0  0  0  0  0  0  0  0
   -3.5139   -3.0573    1.6269 O   0  0  0  0  0  0  0  0  0  0  0  0
   -1.0720   -1.9873   -0.7544 O   0  0  0  0  0  0  0  0  0  0  0  0
   -3.4250   -4.5912   -0.3094 O   0  0  0  0  0  0  0  0  0  0  0  0
    0.3568   -0.9135    2.0461 H   0  0  0  0  0  0  0  0  0  0  0  0
   -1.7070   -2.2422    2.9422 H   0  0  0  0  0  0  0  0  0  0  0  0
   -3.1440   -1.3967    0.4758 H   0  0  0  0  0  0  0  0  0  0  0  0
   -1.2146   -3.7258    0.4133 H   0  0  0  0  0  0  0  0  0  0  0  0
   -2.0890   -4.2093   -1.7678 H   0  0  0  0  0  0  0  0  0  0  0  0
   -3.3870   -2.9375   -1.5861 H   0  0  0  0  0  0  0  0  0  0  0  0
    0.8666   -1.7197   -0.3536 H   0  0  0  0  0  0  0  0  0  0  0  0
    0.3447   -3.0546    2.7396 H   0  0  0  0  0  0  0  0  0  0  0  0
   -1.3312    0.0698    2.9008 H   0  0  0  0  0  0  0  0  0  0  0  0
   -4.4496   -2.9198    1.3031 H   0  0  0  0  0  0  0  0  0  0  0  0
   -1.2000    4.7947   -0.0254 H   0  0  0  0  0  0  0  0  0  0  0  0
   -2.0026    2.2150   -0.5678 H   0  0  0  0  0  0  0  0  0  0  0  0
    3.5769    2.9997   -1.5183 H   0  0  0  0  0  0  0  0  0  0  0  0
   -2.7713   -5.3296   -0.1117 H   0  0  0  0  0  0  0  0  0  0  0  0
  1  2  1  0
  1  7  1  0
  1 11  1  0
  1 13  1  6
  2  3  1  0
  2  8  1  0
  2 14  1  6
  3  4  1  0
  3  9  1  0
  3 15  1  6
  4  5  1  0
  4 10  1  0
  4 16  1  6
  5  6  1  0
  5 11  1  0
  5 17  1  1
  6 12  1  0
  6 18  1  6
  6 19  1  0
  9 20  1  0
 10 26  1  0
 21 22  1  0
 21 26  1  0
 21 27  1  0
 21 32  1  1
 22 23  1  0
 22 28  1  0
 22 33  1  1
 23 24  1  0
 23 29  1  0
 23 34  1  6
 24 25  1  0
 24 30  1  0
 24 35  1  1
 25 31  1  0
 25 36  1  6
 25 37  1  0
 26 30  1  0
 26 38  1  6
 27 39  1  0
 28 40  1  0
 29 41  1  0
  7 42  1  0
  8 43  1  0
 12 44  1  0
 31 45  1  0
M  END
$$$$
GLUCANASE
     RDKit          3D

 45 46  0  0  0  0  0  0  0  0999 V2000
   -1.5219    0.7694   -3.3791 C   0  0  1  0  0  0  0  0  0  0  0  0
   -1.8552   -0.6217   -2.9279 C   0  0  1  0  0  0  0  0  0  0  0  0
   -1.3755   -0.8892   -1.5065 C   0  0  2  0  0  0  0  0  0  0  0  0
   -0.3914    0.2606   -1.2376 C   0  0  1  0  0  0  0  0  0  0  0  0
   -1.2763    1.4726   -1.1735 C   0  0  1  0  0  0  0  0  0  0  0  0
   -0.6454    2.6668   -0.5078 C   0  0  2  0  0  0  0  0  0  0  0  0
   -2.4351    1.0534   -4.4228 O   0  0  0  0  0  0  0  0  0  0  0  0
   -3.2444   -0.7768   -3.0151 O   0  0  0  0  0  0  0  0  0  0  0  0
   -0.8031   -2.1282   -1.3676 O   0  0  0  0  0  0  0  0  0  0  0  0
    0.3475    0.0282   -0.0928 O   0  0  0  0  0  0  0  0  0  0  0  0
   -1.7197    1.7556   -2.4447 O   0  0  0  0  0  0  0  0  0  0  0  0
    0.4542    3.1351   -1.2212 O   0  0  0  0  0  0  0  0  0  0  0  0
   -0.5237    0.8405   -3.9033 H   0  0  0  0  0  0  0  0  0  0  0  0
   -1.4037   -1.3291   -3.6469 H   0  0  0  0  0  0  0  0  0  0  0  0
   -2.2521   -0.7263   -0.8375 H   0  0  0  0  0  0  0  0  0  0  0  0
    0.2690    0.2464   -2.1204 H   0  0  0  0  0  0  0  0  0  0  0  0
   -2.1976    1.2407   -0.5750 H   0  0  0  0  0  0  0  0  0  0  0  0
   -0.4456    2.4580    0.5417 H   0  0  0  0  0  0  0  0  0  0  0  0
   -1.4139    3.4676   -0.5319 H   0  0  0  0  0  0  0  0  0  0  0  0
   -1.0301   -2.4501   -0.4531 H   0  0  0  0  0  0  0  0  0  0  0  0
    2.5299    0.9012    0.2895 C   0  0  2  0  0  0  0  0  0  0  0  0
    3.4115    0.5445    1.4330 C   0  0  2  0  0  0  0  0  0  0  0  0
    3.2858   -0.9172    1.8492 C   0  0  1  0  0  0  0  0  0  0  0  0
    3.2758   -1.6668    0.5362 C   0  0  1  0  0  0  0  0  0  0  0  0
    3.4157   -3.1439    0.8300 C   0  0  2  0  0  0  0  0  0  0  0  0
    1.7127   -0.1635   -0.3182 C   0  0  1  0  0  0  0  0  0  0  0  0
    3.3205    1.5834   -0.6662 O   0  0  0  0  0  0  0  0  0  0  0  0
    3.2333    1.3829    2.5555 O   0  0  0  0  0  0  0  0  0  0  0  0
    4.3666   -1.3139    2.6141 O   0  0  0  0  0  0  0  0  0  0  0  0
    2.0716   -1.4571   -0.0595 O   0  0  0  0  0  0  0  0  0  0  0  0
    3.3436   -3.8699   -0.3590 O   0  0  0  0  0  0  0  0  0  0  0  0
    1.8423    1.6995    0.6694 H   0  0  0  0  0  0  0  0  0  0  0  0
    4.4924    0.6671    1.1725 H   0  0  0  0  0  0  0  0  0  0  0  0
    2.3566   -1.0778    2.4294 H   0  0  0  0  0  0  0  0  0  0  0  0
    4.1148   -1.3256   -0.0713 H   0  0  0  0  0  0  0  0  0  0  0  0
    2.5845   -3.4710    1.4963 H   0  0  0  0  0  0  0  0  0  0  0  0
    4.3666   -3.3874    1.3665 H   0  0  0  0  0  0  0  0  0  0  0  0
    1.8078   -0.0652   -1.4329 H   0  0  0  0  0  0  0  0  0  0  0  0
    4.2049    1.1107   -0.6323 H   0  0  0  0  0  0  0  0  0  0  0  0
    2.6960    0.8563    3.2277 H   0  0  0  0  0  0  0  0  0  0  0  0
    5.1924   -1.4276    2.0593 H   0  0  0  0  0  0  0  0  0  0  0  0
   -2.2073    0.5841   -5.2578 H   0  0  0  0  0  0  0  0  0  0  0  0
   -3.4846   -0.6116   -3.9602 H   0  0  0  0  0  0  0  0  0  0  0  0
    0.3526    2.9420   -2.1831 H   0  0  0  0  0  0  0  0  0  0  0  0
    3.2018   -3.2893   -1.1266 H   0  0  0  0  0  0  0  0  0  0  0  0
  1  2  1  0
  1  7  1  0
  1 11  1  0
  1 13  1  6
  2  3  1  0
  2  8  1  0
  2 14  1  6
  3  4  1  0
  3  9  1  0
  3 15  1  1
  4  5  1  0
  4 10  1  0
  4 16  1  6
  5  6  1  0
  5 11  1  0
  5 17  1  1
  6 12  1  0
  6 18  1  1
  6 19  1  0
  9 20  1  0
 10 26  1  0
 21 22  1  0
 21 26  1  0
 21 27  1  0
 21 32  1  1
 22 23  1  0
 22 28  1  0
 22 33  1  6
 23 24  1  0
 23 29  1  0
 23 34  1  1
 24 25  1  0
 24 30  1  0
 24 35  1  6
 25 31  1  0
 25 36  1  1
 25 37  1  0
 26 30  1  0
 26 38  1  6
 27 39  1  0
 28 40  1  0
 29 41  1  0
  7 42  1  0
  8 43  1  0
 12 44  1  0
 31 45  1  0
M  END
$$$$
GLUCANASE
     RDKit          3D

 45 46  0  0  0  0  0  0  0  0999 V2000
   -2.5422    2.3113    2.3875 C   0  0  1  0  0  0  0  0  0  0  0  0
   -1.0897    2.4061    2.7995 C   0  0  1  0  0  0  0  0  0  0  0  0
   -0.1374    1.9694    1.7033 C   0  0  2  0  0  0  0  0  0  0  0  0
   -0.5689    0.5924    1.2552 C   0  0  1  0  0  0  0  0  0  0  0  0
   -2.0677    0.4511    1.1291 C   0  0  1  0  0  0  0  0  0  0  0  0
   -2.6385   -0.4449    2.2330 C   0  0  2  0  0  0  0  0  0  0  0  0
   -3.1344    3.5896    2.2715 O   0  0  0  0  0  0  0  0  0  0  0  0
   -0.8403    3.7524    3.1024 O   0  0  0  0  0  0  0  0  0  0  0  0
    1.1311    1.8621    2.2488 O   0  0  0  0  0  0  0  0  0  0  0  0
    0.1505    0.0950    0.2013 O   0  0  0  0  0  0  0  0  0  0  0  0
   -2.6798    1.6995    1.1636 O   0  0  0  0  0  0  0  0  0  0  0  0
   -3.9890   -0.6097    2.0619 O   0  0  0  0  0  0  0  0  0  0  0  0
   -3.1635    1.8113    3.1844 H   0  0  0  0  0  0  0  0  0  0  0  0
   -0.9042    1.7607    3.6818 H   0  0  0  0  0  0  0  0  0  0  0  0
   -0.1993    2.7314    0.9178 H   0  0  0  0  0  0  0  0  0  0  0  0
   -0.2598   -0.0461    2.1148 H   0  0  0  0  0  0  0  0  0  0  0  0
   -2.3360   -0.0720    0.1892 H   0  0  0  0  0  0  0  0  0  0  0  0
   -2.3790   -0.0751    3.2461 H   0  0  0  0  0  0  0  0  0  0  0  0
   -2.0765   -1.4223    2.1535 H   0  0  0  0  0  0  0  0  0  0  0  0
    1.0558    1.7308    3.2279 H   0  0  0  0  0  0  0  0  0  0  0  0
    0.5544   -2.2311   -0.2533 C   0  0  2  0  0  0  0  0  0  0  0  0
    1.6035   -2.8691   -1.1035 C   0  0  2  0  0  0  0  0  0  0  0  0
    2.7037   -2.0076   -1.5901 C   0  0  1  0  0  0  0  0  0  0  0  0
    2.6462   -0.6044   -1.0371 C   0  0  1  0  0  0  0  0  0  0  0  0
    1.7084    0.2616   -1.8294 C   0  0  2  0  0  0  0  0  0  0  0  0
    0.9954   -0.9604    0.4221 C   0  0  1  0  0  0  0  0  0  0  0  0
    0.0364   -3.1796    0.6560 O   0  0  0  0  0  0  0  0  0  0  0  0
    1.0342   -3.5895   -2.1813 O   0  0  0  0  0  0  0  0  0  0  0  0
    3.9681   -2.5728   -1.4312 O   0  0  0  0  0  0  0  0  0  0  0  0
    2.3353   -0.7358    0.3049 O   0  0  0  0  0  0  0  0  0  0  0  0
    1.6593    1.5662   -1.3446 O   0  0  0  0  0  0  0  0  0  0  0  0
   -0.3115   -1.9823   -0.8993 H   0  0  0  0  0  0  0  0  0  0  0  0
    2.0798   -3.6791   -0.4713 H   0  0  0  0  0  0  0  0  0  0  0  0
    2.5887   -1.8723   -2.7066 H   0  0  0  0  0  0  0  0  0  0  0  0
    3.6666   -0.1118   -1.1200 H   0  0  0  0  0  0  0  0  0  0  0  0
    0.7287   -0.1644   -2.0345 H   0  0  0  0  0  0  0  0  0  0  0  0
    2.2051    0.3671   -2.8445 H   0  0  0  0  0  0  0  0  0  0  0  0
    0.8572   -1.1663    1.5347 H   0  0  0  0  0  0  0  0  0  0  0  0
    0.7785   -3.4951    1.2629 H   0  0  0  0  0  0  0  0  0  0  0  0
    0.0942   -3.3256   -2.3444 H   0  0  0  0  0  0  0  0  0  0  0  0
    4.6125   -2.1609   -2.0878 H   0  0  0  0  0  0  0  0  0  0  0  0
   -4.0642    3.4403    2.0064 H   0  0  0  0  0  0  0  0  0  0  0  0
   -1.2225    4.3112    2.3811 H   0  0  0  0  0  0  0  0  0  0  0  0
   -4.3734   -0.9001    2.9287 H   0  0  0  0  0  0  0  0  0  0  0  0
    2.4260    1.7880   -0.7651 H   0  0  0  0  0  0  0  0  0  0  0  0
  1  2  1  0
  1  7  1  0
  1 11  1  0
  1 13  1  1
  2  3  1  0
  2  8  1  0
  2 14  1  1
  3  4  1  0
  3  9  1  0
  3 15  1  6
  4  5  1  0
  4 10  1  0
  4 16  1  1
  5  6  1  0
  5 11  1  0
  5 17  1  6
  6 12  1  0
  6 18  1  1
  6 19  1  0
  9 20  1  0
 10 26  1  0
 21 22  1  0
 21 26  1  0
 21 27  1  0
 21 32  1  6
 22 23  1  0
 22 28  1  0
 22 33  1  1
 23 24  1  0
 23 29  1  0
 23 34  1  6
 24 25  1  0
 24 30  1  0
 24 35  1  1
 25 31  1  0
 25 36  1  6
 25 37  1  0
 26 30  1  0
 26 38  1  1
 27 39  1  0
 28 40  1  0
 29 41  1  0
  7 42  1  0
  8 43  1  0
 12 44  1  0
 31 45  1  0
M  END
$$$$
GLUCANASE
     RDKit          3D

 45 46  0  0  0  0  0  0  0  0999 V2000
   -0.5326    0.4381    3.6003 C   0  0  1  0  0  0  0  0  0  0  0  0
   -0.3884   -1.0514    3.5105 C   0  0  1  0  0  0  0  0  0  0  0  0
   -0.0414   -1.5603    2.1358 C   0  0  2  0  0  0  0  0  0  0  0  0
    0.1637   -0.2857    1.2711 C   0  0  1  0  0  0  0  0  0  0  0  0
    1.1663    0.5175    2.0364 C   0  0  1  0  0  0  0  0  0  0  0  0
    1.9545    1.5062    1.2539 C   0  0  2  0  0  0  0  0  0  0  0  0
   -0.6467    0.7529    4.9559 O   0  0  0  0  0  0  0  0  0  0  0  0
    0.4408   -1.5381    4.5123 O   0  0  0  0  0  0  0  0  0  0  0  0
   -0.9850   -2.3992    1.5909 O   0  0  0  0  0  0  0  0  0  0  0  0
    0.5046   -0.6409   -0.0102 O   0  0  0  0  0  0  0  0  0  0  0  0
    0.5489    1.1522    3.1135 O   0  0  0  0  0  0  0  0  0  0  0  0
    2.9246    2.0687    2.0801 O   0  0  0  0  0  0  0  0  0  0  0  0
   -1.5099    0.7640    3.1531 H   0  0  0  0  0  0  0  0  0  0  0  0
   -1.4119   -1.4670    3.7410 H   0  0  0  0  0  0  0  0  0  0  0  0
    0.9701   -2.0191    2.1980 H   0  0  0  0  0  0  0  0  0  0  0  0
   -0.8007    0.2792    1.2577 H   0  0  0  0  0  0  0  0  0  0  0  0
    1.8973   -0.2000    2.5165 H   0  0  0  0  0  0  0  0  0  0  0  0
    1.3602    2.3580    0.8740 H   0  0  0  0  0  0  0  0  0  0  0  0
    2.4829    1.0582    0.3894 H   0  0  0  0  0  0  0  0  0  0  0  0
   -0.5186   -3.1498    1.1079 H   0  0  0  0  0  0  0  0  0  0  0  0
    0.1325    0.4726   -2.1523 C   0  0  2  0  0  0  0  0  0  0  0  0
   -1.0380    0.8949   -3.0174 C   0  0  2  0  0  0  0  0  0  0  0  0
   -2.0805   -0.1389   -3.2173 C   0  0  1  0  0  0  0  0  0  0  0  0
   -2.1686   -1.1447   -2.0974 C   0  0  1  0  0  0  0  0  0  0  0  0
   -2.8817   -2.3981   -2.5115 C   0  0  2  0  0  0  0  0  0  0  0  0
   -0.4223   -0.2880   -0.9830 C   0  0  1  0  0  0  0  0  0  0  0  0
    0.7702    1.6037   -1.7016 O   0  0  0  0  0  0  0  0  0  0  0  0
   -0.5959    1.3325   -4.2785 O   0  0  0  0  0  0  0  0  0  0  0  0
   -3.3287    0.4843   -3.3097 O   0  0  0  0  0  0  0  0  0  0  0  0
   -0.9516   -1.4798   -1.5668 O   0  0  0  0  0  0  0  0  0  0  0  0
   -2.1402   -3.0821   -3.4618 O   0  0  0  0  0  0  0  0  0  0  0  0
    0.7771   -0.1610   -2.8002 H   0  0  0  0  0  0  0  0  0  0  0  0
   -1.4789    1.7995   -2.5285 H   0  0  0  0  0  0  0  0  0  0  0  0
   -1.9197   -0.6400   -4.2095 H   0  0  0  0  0  0  0  0  0  0  0  0
   -2.7599   -0.6769   -1.2672 H   0  0  0  0  0  0  0  0  0  0  0  0
   -3.9238   -2.2365   -2.8026 H   0  0  0  0  0  0  0  0  0  0  0  0
   -2.9012   -3.0489   -1.5894 H   0  0  0  0  0  0  0  0  0  0  0  0
   -1.2985    0.2634   -0.5994 H   0  0  0  0  0  0  0  0  0  0  0  0
    1.4957    1.8352   -2.3334 H   0  0  0  0  0  0  0  0  0  0  0  0
    0.4029    1.2993   -4.3229 H   0  0  0  0  0  0  0  0  0  0  0  0
   -3.2689    1.4584   -3.2851 H   0  0  0  0  0  0  0  0  0  0  0  0
   -1.4989    0.4483    5.3610 H   0  0  0  0  0  0  0  0  0  0  0  0
    1.3112   -1.8613    4.1466 H   0  0  0  0  0  0  0  0  0  0  0  0
    2.5249    2.6557    2.7649 H   0  0  0  0  0  0  0  0  0  0  0  0
   -2.6097   -3.8228   -3.8784 H   0  0  0  0  0  0  0  0  0  0  0  0
  1  2  1  0
  1  7  1  0
  1 11  1  0
  1 13  1  6
  2  3  1  0
  2  8  1  0
  2 14  1  1
  3  4  1  0
  3  9  1  0
  3 15  1  1
  4  5  1  0
  4 10  1  0
  4 16  1  6
  5  6  1  0
  5 11  1  0
  5 17  1  1
  6 12  1  0
  6 18  1  6
  6 19  1  0
  9 20  1  0
 10 26  1  0
 21 22  1  0
 21 26  1  0
 21 27  1  0
 21 32  1  6
 22 23  1  0
 22 28  1  0
 22 33  1  1
 23 24  1  0
 23 29  1  0
 23 34  1  6
 24 25  1  0
 24 30  1  0
 24 35  1  1
 25 31  1  0
 25 36  1  6
 25 37  1  0
 26 30  1  0
 26 38  1  1
 27 39  1  0
 28 40  1  0
 29 41  1  0
  7 42  1  0
  8 43  1  0
 12 44  1  0
 31 45  1  0
M  END
$$$$
GLUCANASE
     RDKit          3D

 45 46  0  0  0  0  0  0  0  0999 V2000
   -1.5725   -2.4987    2.5702 C   0  0  1  0  0  0  0  0  0  0  0  0
   -2.0204   -2.8838    1.1974 C   0  0  1  0  0  0  0  0  0  0  0  0
   -1.1388   -2.3337    0.0899 C   0  0  2  0  0  0  0  0  0  0  0  0
   -0.0193   -1.6050    0.8479 C   0  0  1  0  0  0  0  0  0  0  0  0
    0.5750   -2.6497    1.7356 C   0  0  1  0  0  0  0  0  0  0  0  0
    2.0143   -2.4438    2.0922 C   0  0  2  0  0  0  0  0  0  0  0  0
   -2.3119   -3.3091    3.4587 O   0  0  0  0  0  0  0  0  0  0  0  0
   -2.2167   -4.2570    1.1062 O   0  0  0  0  0  0  0  0  0  0  0  0
   -1.8087   -1.4897   -0.7734 O   0  0  0  0  0  0  0  0  0  0  0  0
    0.8509   -0.9738   -0.0060 O   0  0  0  0  0  0  0  0  0  0  0  0
   -0.2501   -2.7296    2.8539 O   0  0  0  0  0  0  0  0  0  0  0  0
    2.8013   -2.3694    0.9594 O   0  0  0  0  0  0  0  0  0  0  0  0
   -1.8724   -1.4592    2.8260 H   0  0  0  0  0  0  0  0  0  0  0  0
   -3.0500   -2.4358    1.0801 H   0  0  0  0  0  0  0  0  0  0  0  0
   -0.7054   -3.2332   -0.4093 H   0  0  0  0  0  0  0  0  0  0  0  0
   -0.5638   -0.8042    1.4048 H   0  0  0  0  0  0  0  0  0  0  0  0
    0.5156   -3.6787    1.2727 H   0  0  0  0  0  0  0  0  0  0  0  0
    2.3413   -3.3571    2.6318 H   0  0  0  0  0  0  0  0  0  0  0  0
    2.1788   -1.6010    2.8050 H   0  0  0  0  0  0  0  0  0  0  0  0
   -1.4883   -1.5346   -1.7067 H   0  0  0  0  0  0  0  0  0  0  0  0
    2.0708    1.0793    0.4196 C   0  0  2  0  0  0  0  0  0  0  0  0
    2.4227    2.2535   -0.4323 C   0  0  2  0  0  0  0  0  0  0  0  0
    1.2591    2.9861   -1.0104 C   0  0  1  0  0  0  0  0  0  0  0  0
   -0.0474    2.2472   -0.8737 C   0  0  1  0  0  0  0  0  0  0  0  0
   -1.0568    2.6935   -1.8777 C   0  0  2  0  0  0  0  0  0  0  0  0
    0.7726    0.4351    0.0985 C   0  0  1  0  0  0  0  0  0  0  0  0
    2.1012    1.3829    1.7811 O   0  0  0  0  0  0  0  0  0  0  0  0
    3.2523    1.8246   -1.4754 O   0  0  0  0  0  0  0  0  0  0  0  0
    1.0903    4.2442   -0.4261 O   0  0  0  0  0  0  0  0  0  0  0  0
    0.2367    0.8982   -1.1262 O   0  0  0  0  0  0  0  0  0  0  0  0
   -0.5925    2.5637   -3.1807 O   0  0  0  0  0  0  0  0  0  0  0  0
    2.8760    0.2978    0.2941 H   0  0  0  0  0  0  0  0  0  0  0  0
    3.0209    2.9672    0.1715 H   0  0  0  0  0  0  0  0  0  0  0  0
    1.4059    3.1638   -2.0997 H   0  0  0  0  0  0  0  0  0  0  0  0
   -0.4340    2.3471    0.1388 H   0  0  0  0  0  0  0  0  0  0  0  0
   -1.3850    3.7113   -1.6363 H   0  0  0  0  0  0  0  0  0  0  0  0
   -1.9445    2.0231   -1.7594 H   0  0  0  0  0  0  0  0  0  0  0  0
    0.0211    0.7514    0.8520 H   0  0  0  0  0  0  0  0  0  0  0  0
    1.8991    2.3679    1.8555 H   0  0  0  0  0  0  0  0  0  0  0  0
    2.7059    1.5547   -2.2546 H   0  0  0  0  0  0  0  0  0  0  0  0
    0.1579    4.5615   -0.5871 H   0  0  0  0  0  0  0  0  0  0  0  0
   -3.2786   -3.2833    3.2333 H   0  0  0  0  0  0  0  0  0  0  0  0
   -1.6005   -4.7136    1.7319 H   0  0  0  0  0  0  0  0  0  0  0  0
    3.7352   -2.1636    1.2489 H   0  0  0  0  0  0  0  0  0  0  0  0
   -1.3534    2.5083   -3.8304 H   0  0  0  0  0  0  0  0  0  0  0  0
  1  2  1  0
  1  7  1  0
  1 11  1  0
  1 13  1  1
  2  3  1  0
  2  8  1  0
  2 14  1  6
  3  4  1  0
  3  9  1  0
  3 15  1  6
  4  5  1  0
  4 10  1  0
  4 16  1  1
  5  6  1  0
  5 11  1  0
  5 17  1  6
  6 12  1  0
  6 18  1  1
  6 19  1  0
  9 20  1  0
 10 26  1  0
 21 22  1  0
 21 26  1  0
 21 27  1  0
 21 32  1  1
 22 23  1  0
 22 28  1  0
 22 33  1  1
 23 24  1  0
 23 29  1  0
 23 34  1  6
 24 25  1  0
 24 30  1  0
 24 35  1  1
 25 31  1  0
 25 36  1  1
 25 37  1  0
 26 30  1  0
 26 38  1  1
 27 39  1  0
 28 40  1  0
 29 41  1  0
  7 42  1  0
  8 43  1  0
 12 44  1  0
 31 45  1  0
M  END
$$$$
GLUCANASE
     RDKit          3D

 45 46  0  0  0  0  0  0  0  0999 V2000
    2.5340    2.4722    0.8279 C   0  0  1  0  0  0  0  0  0  0  0  0
    2.9508    1.5546   -0.2746 C   0  0  1  0  0  0  0  0  0  0  0  0
    2.0318    0.3936   -0.5067 C   0  0  2  0  0  0  0  0  0  0  0  0
    0.7919    0.3999    0.3349 C   0  0  1  0  0  0  0  0  0  0  0  0
    0.9260    0.9991    1.6933 C   0  0  1  0  0  0  0  0  0  0  0  0
    0.8370   -0.0570    2.7777 C   0  0  2  0  0  0  0  0  0  0  0  0
    1.6686    3.4531    0.3198 O   0  0  0  0  0  0  0  0  0  0  0  0
    3.1597    2.3158   -1.4275 O   0  0  0  0  0  0  0  0  0  0  0  0
    2.7070   -0.8279   -0.4381 O   0  0  0  0  0  0  0  0  0  0  0  0
   -0.3170    0.9005   -0.3901 O   0  0  0  0  0  0  0  0  0  0  0  0
    1.9175    1.9012    1.8841 O   0  0  0  0  0  0  0  0  0  0  0  0
    1.9849   -0.8048    2.8972 O   0  0  0  0  0  0  0  0  0  0  0  0
    3.4126    3.0432    1.1966 H   0  0  0  0  0  0  0  0  0  0  0  0
    3.9520    1.1432   -0.0205 H   0  0  0  0  0  0  0  0  0  0  0  0
    1.6931    0.4677   -1.5631 H   0  0  0  0  0  0  0  0  0  0  0  0
    0.5089   -0.6668    0.4730 H   0  0  0  0  0  0  0  0  0  0  0  0
   -0.0303    1.5922    1.8440 H   0  0  0  0  0  0  0  0  0  0  0  0
    0.0075   -0.7554    2.5436 H   0  0  0  0  0  0  0  0  0  0  0  0
    0.6048    0.3774    3.7711 H   0  0  0  0  0  0  0  0  0  0  0  0
    2.0613   -1.5643   -0.3049 H   0  0  0  0  0  0  0  0  0  0  0  0
   -2.6063    0.4024   -0.0705 C   0  0  2  0  0  0  0  0  0  0  0  0
   -3.5194   -0.8101   -0.2335 C   0  0  2  0  0  0  0  0  0  0  0  0
   -3.5998   -1.2266   -1.6516 C   0  0  1  0  0  0  0  0  0  0  0  0
   -2.4034   -0.9832   -2.4849 C   0  0  1  0  0  0  0  0  0  0  0  0
   -2.8220   -0.4333   -3.8430 C   0  0  2  0  0  0  0  0  0  0  0  0
   -1.2804   -0.0543   -0.6449 C   0  0  1  0  0  0  0  0  0  0  0  0
   -2.5570    0.6576    1.2913 O   0  0  0  0  0  0  0  0  0  0  0  0
   -4.7683   -0.5815    0.3204 O   0  0  0  0  0  0  0  0  0  0  0  0
   -3.9660   -2.5917   -1.6650 O   0  0  0  0  0  0  0  0  0  0  0  0
   -1.4514   -0.1385   -2.0036 O   0  0  0  0  0  0  0  0  0  0  0  0
   -3.3362    0.8717   -3.6748 O   0  0  0  0  0  0  0  0  0  0  0  0
   -3.0174    1.2924   -0.5876 H   0  0  0  0  0  0  0  0  0  0  0  0
   -3.0517   -1.6172    0.3705 H   0  0  0  0  0  0  0  0  0  0  0  0
   -4.4763   -0.7020   -2.0905 H   0  0  0  0  0  0  0  0  0  0  0  0
   -1.9187   -1.9630   -2.6915 H   0  0  0  0  0  0  0  0  0  0  0  0
   -3.6520   -1.0205   -4.2891 H   0  0  0  0  0  0  0  0  0  0  0  0
   -1.9916   -0.3604   -4.5567 H   0  0  0  0  0  0  0  0  0  0  0  0
   -1.0658   -1.0538   -0.2597 H   0  0  0  0  0  0  0  0  0  0  0  0
   -2.5474   -0.1409    1.8579 H   0  0  0  0  0  0  0  0  0  0  0  0
   -4.9000   -1.0446    1.1856 H   0  0  0  0  0  0  0  0  0  0  0  0
   -4.6279   -2.7982   -2.3587 H   0  0  0  0  0  0  0  0  0  0  0  0
    2.0973    4.0378   -0.3511 H   0  0  0  0  0  0  0  0  0  0  0  0
    3.3854    1.7509   -2.2073 H   0  0  0  0  0  0  0  0  0  0  0  0
    2.8111   -0.3508    2.5517 H   0  0  0  0  0  0  0  0  0  0  0  0
   -2.7942    1.5467   -4.1340 H   0  0  0  0  0  0  0  0  0  0  0  0
  1  2  1  0
  1  7  1  0
  1 11  1  0
  1 13  1  1
  2  3  1  0
  2  8  1  0
  2 14  1  1
  3  4  1  0
  3  9  1  0
  3 15  1  6
  4  5  1  0
  4 10  1  0
  4 16  1  1
  5  6  1  0
  5 11  1  0
  5 17  1  1
  6 12  1  0
  6 18  1  6
  6 19  1  0
  9 20  1  0
 10 26  1  0
 21 22  1  0
 21 26  1  0
 21 27  1  0
 21 32  1  6
 22 23  1  0
 22 28  1  0
 22 33  1  1
 23 24  1  0
 23 29  1  0
 23 34  1  6
 24 25  1  0
 24 30  1  0
 24 35  1  6
 25 31  1  0
 25 36  1  6
 25 37  1  0
 26 30  1  0
 26 38  1  1
 27 39  1  0
 28 40  1  0
 29 41  1  0
  7 42  1  0
  8 43  1  0
 12 44  1  0
 31 45  1  0
M  END
$$$$
GLUCANASE
     RDKit          3D

 45 46  0  0  0  0  0  0  0  0999 V2000
    2.8050   -1.3622    2.4081 C   0  0  1  0  0  0  0  0  0  0  0  0
    1.6127   -0.8839    3.1602 C   0  0  1  0  0  0  0  0  0  0  0  0
    0.3804   -0.6526    2.3056 C   0  0  2  0  0  0  0  0  0  0  0  0
    0.8479   -0.8649    0.8684 C   0  0  1  0  0  0  0  0  0  0  0  0
    1.3589   -2.2818    0.8614 C   0  0  1  0  0  0  0  0  0  0  0  0
    1.3546   -2.9200   -0.4863 C   0  0  2  0  0  0  0  0  0  0  0  0
    3.7184   -1.8452    3.3591 O   0  0  0  0  0  0  0  0  0  0  0  0
    1.3467   -1.6648    4.2883 O   0  0  0  0  0  0  0  0  0  0  0  0
   -0.2268    0.5595    2.5182 O   0  0  0  0  0  0  0  0  0  0  0  0
   -0.1277   -0.7614   -0.0473 O   0  0  0  0  0  0  0  0  0  0  0  0
    2.5792   -2.3931    1.5166 O   0  0  0  0  0  0  0  0  0  0  0  0
    1.6492   -4.2743   -0.3096 O   0  0  0  0  0  0  0  0  0  0  0  0
    3.3686   -0.5264    1.9000 H   0  0  0  0  0  0  0  0  0  0  0  0
    1.8779    0.1277    3.5799 H   0  0  0  0  0  0  0  0  0  0  0  0
   -0.2860   -1.5169    2.5150 H   0  0  0  0  0  0  0  0  0  0  0  0
    1.7212   -0.2037    0.7343 H   0  0  0  0  0  0  0  0  0  0  0  0
    0.6300   -2.8857    1.4832 H   0  0  0  0  0  0  0  0  0  0  0  0
    2.0117   -2.4720   -1.2342 H   0  0  0  0  0  0  0  0  0  0  0  0
    0.3038   -2.8307   -0.8711 H   0  0  0  0  0  0  0  0  0  0  0  0
    0.4654    1.2631    2.4368 H   0  0  0  0  0  0  0  0  0  0  0  0
   -0.3668   -0.2245   -2.4210 C   0  0  2  0  0  0  0  0  0  0  0  0
   -0.1953    1.0260   -3.3015 C   0  0  2  0  0  0  0  0  0  0  0  0
   -1.0668    2.1378   -2.8304 C   0  0  1  0  0  0  0  0  0  0  0  0
   -0.9555    2.2914   -1.3269 C   0  0  1  0  0  0  0  0  0  0  0  0
   -2.1988    3.0573   -0.9163 C   0  0  2  0  0  0  0  0  0  0  0  0
    0.0040    0.1742   -1.0425 C   0  0  1  0  0  0  0  0  0  0  0  0
    0.4116   -1.1707   -3.0347 O   0  0  0  0  0  0  0  0  0  0  0  0
   -0.4523    0.7224   -4.6335 O   0  0  0  0  0  0  0  0  0  0  0  0
   -0.6104    3.3342   -3.4036 O   0  0  0  0  0  0  0  0  0  0  0  0
   -1.0032    1.1104   -0.6574 O   0  0  0  0  0  0  0  0  0  0  0  0
   -3.3415    2.3078   -1.2763 O   0  0  0  0  0  0  0  0  0  0  0  0
   -1.4648   -0.4743   -2.5096 H   0  0  0  0  0  0  0  0  0  0  0  0
    0.8639    1.3259   -3.1490 H   0  0  0  0  0  0  0  0  0  0  0  0
   -2.1317    1.9911   -3.1206 H   0  0  0  0  0  0  0  0  0  0  0  0
   -0.0932    2.9529   -1.0443 H   0  0  0  0  0  0  0  0  0  0  0  0
   -2.2834    4.0461   -1.3976 H   0  0  0  0  0  0  0  0  0  0  0  0
   -2.2518    3.2273    0.1848 H   0  0  0  0  0  0  0  0  0  0  0  0
    0.9285    0.7692   -1.0257 H   0  0  0  0  0  0  0  0  0  0  0  0
   -0.1090   -1.9288   -3.3988 H   0  0  0  0  0  0  0  0  0  0  0  0
    0.3521    0.8829   -5.1812 H   0  0  0  0  0  0  0  0  0  0  0  0
   -1.3414    3.8289   -3.8309 H   0  0  0  0  0  0  0  0  0  0  0  0
    3.9973   -2.7614    3.1893 H   0  0  0  0  0  0  0  0  0  0  0  0
    1.8811   -1.3433    5.0830 H   0  0  0  0  0  0  0  0  0  0  0  0
    0.8609   -4.8055   -0.0666 H   0  0  0  0  0  0  0  0  0  0  0  0
   -3.3406    1.4306   -0.8088 H   0  0  0  0  0  0  0  0  0  0  0  0
  1  2  1  0
  1  7  1  0
  1 11  1  0
  1 13  1  6
  2  3  1  0
  2  8  1  0
  2 14  1  1
  3  4  1  0
  3  9  1  0
  3 15  1  1
  4  5  1  0
  4 10  1  0
  4 16  1  6
  5  6  1  0
  5 11  1  0
  5 17  1  1
  6 12  1  0
  6 18  1  6
  6 19  1  0
  9 20  1  0
 10 26  1  0
 21 22  1  0
 21 26  1  0
 21 27  1  0
 21 32  1  1
 22 23  1  0
 22 28  1  0
 22 33  1  6
 23 24  1  0
 23 29  1  0
 23 34  1  1
 24 25  1  0
 24 30  1  0
 24 35  1  6
 25 31  1  0
 25 36  1  6
 25 37  1  0
 26 30  1  0
 26 38  1  6
 27 39  1  0
 28 40  1  0
 29 41  1  0
  7 42  1  0
  8 43  1  0
 12 44  1  0
 31 45  1  0
M  END
$$$$
GLUCANASE
     RDKit          3D

 45 46  0  0  0  0  0  0  0  0999 V2000
    0.2833   -3.7559   -2.2083 C   0  0  1  0  0  0  0  0  0  0  0  0
   -1.2111   -3.4725   -2.2768 C   0  0  1  0  0  0  0  0  0  0  0  0
   -1.3116   -1.9883   -1.9761 C   0  0  2  0  0  0  0  0  0  0  0  0
   -0.6479   -1.6411   -0.6797 C   0  0  1  0  0  0  0  0  0  0  0  0
    0.4211   -2.5602   -0.2172 C   0  0  1  0  0  0  0  0  0  0  0  0
    0.1199   -2.9356    1.2270 C   0  0  2  0  0  0  0  0  0  0  0  0
    0.9889   -2.8760   -3.0160 O   0  0  0  0  0  0  0  0  0  0  0  0
   -1.7535   -3.7430   -3.5160 O   0  0  0  0  0  0  0  0  0  0  0  0
   -2.6645   -1.6717   -2.0161 O   0  0  0  0  0  0  0  0  0  0  0  0
   -0.0850   -0.3540   -0.8248 O   0  0  0  0  0  0  0  0  0  0  0  0
    0.6196   -3.7256   -0.8827 O   0  0  0  0  0  0  0  0  0  0  0  0
   -1.0238   -3.7321    1.2195 O   0  0  0  0  0  0  0  0  0  0  0  0
    0.4351   -4.7722   -2.5892 H   0  0  0  0  0  0  0  0  0  0  0  0
   -1.6654   -4.0867   -1.4739 H   0  0  0  0  0  0  0  0  0  0  0  0
   -0.8568   -1.4552   -2.8426 H   0  0  0  0  0  0  0  0  0  0  0  0
   -1.4616   -1.4946    0.0651 H   0  0  0  0  0  0  0  0  0  0  0  0
    1.4286   -2.0502   -0.1740 H   0  0  0  0  0  0  0  0  0  0  0  0
   -0.0322   -2.0671    1.8736 H   0  0  0  0  0  0  0  0  0  0  0  0
    0.9633   -3.5293    1.6738 H   0  0  0  0  0  0  0  0  0  0  0  0
   -3.0499   -2.1597   -2.7974 H   0  0  0  0  0  0  0  0  0  0  0  0
    0.2796    1.3046    0.8973 C   0  0  2  0  0  0  0  0  0  0  0  0
   -0.6047    1.9787    1.9223 C   0  0  2  0  0  0  0  0  0  0  0  0
   -1.8109    2.5719    1.2726 C   0  0  1  0  0  0  0  0  0  0  0  0
   -1.8031    2.6289   -0.2085 C   0  0  1  0  0  0  0  0  0  0  0  0
   -1.2362    3.9687   -0.6537 C   0  0  2  0  0  0  0  0  0  0  0  0
   -0.6970    0.5970   -0.0405 C   0  0  1  0  0  0  0  0  0  0  0  0
    1.1509    0.3923    1.4888 O   0  0  0  0  0  0  0  0  0  0  0  0
    0.0969    2.8368    2.7509 O   0  0  0  0  0  0  0  0  0  0  0  0
   -3.0017    1.9821    1.7128 O   0  0  0  0  0  0  0  0  0  0  0  0
   -1.2093    1.5669   -0.8597 O   0  0  0  0  0  0  0  0  0  0  0  0
   -1.8596    5.0189    0.0251 O   0  0  0  0  0  0  0  0  0  0  0  0
    0.8880    2.0597    0.3536 H   0  0  0  0  0  0  0  0  0  0  0  0
   -0.9606    1.1426    2.5879 H   0  0  0  0  0  0  0  0  0  0  0  0
   -1.8705    3.6328    1.6573 H   0  0  0  0  0  0  0  0  0  0  0  0
   -2.8650    2.6266   -0.5581 H   0  0  0  0  0  0  0  0  0  0  0  0
   -1.4733    4.1555   -1.7419 H   0  0  0  0  0  0  0  0  0  0  0  0
   -0.1307    4.0103   -0.6044 H   0  0  0  0  0  0  0  0  0  0  0  0
   -1.5391    0.1928    0.5822 H   0  0  0  0  0  0  0  0  0  0  0  0
    2.0371    0.4430    1.0537 H   0  0  0  0  0  0  0  0  0  0  0  0
   -0.4940    3.5188    3.1414 H   0  0  0  0  0  0  0  0  0  0  0  0
   -3.5937    1.7400    0.9701 H   0  0  0  0  0  0  0  0  0  0  0  0
    1.4159   -2.1425   -2.5213 H   0  0  0  0  0  0  0  0  0  0  0  0
   -2.6372   -4.1697   -3.3653 H   0  0  0  0  0  0  0  0  0  0  0  0
   -1.3312   -3.8066    2.1582 H   0  0  0  0  0  0  0  0  0  0  0  0
   -1.2300    5.7175    0.3315 H   0  0  0  0  0  0  0  0  0  0  0  0
  1  2  1  0
  1  7  1  0
  1 11  1  0
  1 13  1  6
  2  3  1  0
  2  8  1  0
  2 14  1  1
  3  4  1  0
  3  9  1  0
  3 15  1  6
  4  5  1  0
  4 10  1  0
  4 16  1  1
  5  6  1  0
  5 11  1  0
  5 17  1  1
  6 12  1  0
  6 18  1  1
  6 19  1  0
  9 20  1  0
 10 26  1  0
 21 22  1  0
 21 26  1  0
 21 27  1  0
 21 32  1  6
 22 23  1  0
 22 28  1  0
 22 33  1  1
 23 24  1  0
 23 29  1  0
 23 34  1  1
 24 25  1  0
 24 30  1  0
 24 35  1  6
 25 31  1  0
 25 36  1  6
 25 37  1  0
 26 30  1  0
 26 38  1  1
 27 39  1  0
 28 40  1  0
 29 41  1  0
  7 42  1  0
  8 43  1  0
 12 44  1  0
 31 45  1  0
M  END
$$$$
GLUCANASE
     RDKit          3D

 45 46  0  0  0  0  0  0  0  0999 V2000
    0.5214    3.6946    2.2009 C   0  0  1  0  0  0  0  0  0  0  0  0
   -0.2623    2.8374    3.1401 C   0  0  1  0  0  0  0  0  0  0  0  0
   -0.2038    1.4377    2.6173 C   0  0  2  0  0  0  0  0  0  0  0  0
   -0.5163    1.4048    1.1603 C   0  0  1  0  0  0  0  0  0  0  0  0
   -0.7451    2.7298    0.5073 C   0  0  1  0  0  0  0  0  0  0  0  0
   -2.2382    3.0574    0.3766 C   0  0  2  0  0  0  0  0  0  0  0  0
    1.8106    3.1643    2.1408 O   0  0  0  0  0  0  0  0  0  0  0  0
    0.3655    2.9418    4.3953 O   0  0  0  0  0  0  0  0  0  0  0  0
   -1.0715    0.6723    3.3895 O   0  0  0  0  0  0  0  0  0  0  0  0
    0.3245    0.5760    0.4331 O   0  0  0  0  0  0  0  0  0  0  0  0
    0.0045    3.7771    0.9390 O   0  0  0  0  0  0  0  0  0  0  0  0
   -2.9605    1.9368   -0.0721 O   0  0  0  0  0  0  0  0  0  0  0  0
    0.6293    4.6999    2.6972 H   0  0  0  0  0  0  0  0  0  0  0  0
   -1.2787    3.2551    3.2521 H   0  0  0  0  0  0  0  0  0  0  0  0
    0.8550    1.0939    2.7644 H   0  0  0  0  0  0  0  0  0  0  0  0
   -1.5096    0.8637    1.0802 H   0  0  0  0  0  0  0  0  0  0  0  0
   -0.4279    2.5750   -0.5700 H   0  0  0  0  0  0  0  0  0  0  0  0
   -2.4076    3.8221   -0.4088 H   0  0  0  0  0  0  0  0  0  0  0  0
   -2.6598    3.4807    1.3056 H   0  0  0  0  0  0  0  0  0  0  0  0
   -1.8747    1.1890    3.6316 H   0  0  0  0  0  0  0  0  0  0  0  0
   -0.1280   -0.4022   -1.6064 C   0  0  2  0  0  0  0  0  0  0  0  0
    0.0677   -1.7004   -2.3480 C   0  0  2  0  0  0  0  0  0  0  0  0
    1.3014   -2.3861   -1.7992 C   0  0  1  0  0  0  0  0  0  0  0  0
    1.4497   -2.1441   -0.3206 C   0  0  1  0  0  0  0  0  0  0  0  0
    2.6582   -1.2752   -0.0545 C   0  0  2  0  0  0  0  0  0  0  0  0
   -0.2490   -0.5476   -0.1143 C   0  0  1  0  0  0  0  0  0  0  0  0
   -1.2618    0.2808   -2.0673 O   0  0  0  0  0  0  0  0  0  0  0  0
    0.2201   -1.4123   -3.6860 O   0  0  0  0  0  0  0  0  0  0  0  0
    1.2719   -3.7378   -2.0815 O   0  0  0  0  0  0  0  0  0  0  0  0
    0.3315   -1.7001    0.2948 O   0  0  0  0  0  0  0  0  0  0  0  0
    2.9255   -1.2387    1.3331 O   0  0  0  0  0  0  0  0  0  0  0  0
    0.7236    0.2761   -1.8187 H   0  0  0  0  0  0  0  0  0  0  0  0
   -0.8092   -2.3516   -2.1629 H   0  0  0  0  0  0  0  0  0  0  0  0
    2.1714   -1.9377   -2.3159 H   0  0  0  0  0  0  0  0  0  0  0  0
    1.7116   -3.1366    0.1437 H   0  0  0  0  0  0  0  0  0  0  0  0
    2.5512   -0.2349   -0.3663 H   0  0  0  0  0  0  0  0  0  0  0  0
    3.5763   -1.6958   -0.5193 H   0  0  0  0  0  0  0  0  0  0  0  0
   -1.3449   -0.6219    0.1202 H   0  0  0  0  0  0  0  0  0  0  0  0
   -1.0691    0.6594   -2.9648 H   0  0  0  0  0  0  0  0  0  0  0  0
    0.7022   -2.1756   -4.0912 H   0  0  0  0  0  0  0  0  0  0  0  0
    0.7250   -4.2248   -1.3869 H   0  0  0  0  0  0  0  0  0  0  0  0
    2.0543    2.8454    3.0615 H   0  0  0  0  0  0  0  0  0  0  0  0
   -0.2864    2.7035    5.0990 H   0  0  0  0  0  0  0  0  0  0  0  0
   -3.7318    2.1612   -0.6276 H   0  0  0  0  0  0  0  0  0  0  0  0
    3.3145   -2.1170    1.5515 H   0  0  0  0  0  0  0  0  0  0  0  0
  1  2  1  0
  1  7  1  0
  1 11  1  0
  1 13  1  1
  2  3  1  0
  2  8  1  0
  2 14  1  1
  3  4  1  0
  3  9  1  0
  3 15  1  6
  4  5  1  0
  4 10  1  0
  4 16  1  1
  5  6  1  0
  5 11  1  0
  5 17  1  6
  6 12  1  0
  6 18  1  6
  6 19  1  0
  9 20  1  0
 10 26  1  0
 21 22  1  0
 21 26  1  0
 21 27  1  0
 21 32  1  1
 22 23  1  0
 22 28  1  0
 22 33  1  6
 23 24  1  0
 23 29  1  0
 23 34  1  6
 24 25  1  0
 24 30  1  0
 24 35  1  1
 25 31  1  0
 25 36  1  6
 25 37  1  0
 26 30  1  0
 26 38  1  6
 27 39  1  0
 28 40  1  0
 29 41  1  0
  7 42  1  0
  8 43  1  0
 12 44  1  0
 31 45  1  0
M  END
$$$$
GLUCANASE
     RDKit          3D

 45 46  0  0  0  0  0  0  0  0999 V2000
    1.6269    3.2116    1.2651 C   0  0  1  0  0  0  0  0  0  0  0  0
    1.5026    3.0046   -0.2125 C   0  0  1  0  0  0  0  0  0  0  0  0
    1.5722    1.5248   -0.4566 C   0  0  2  0  0  0  0  0  0  0  0  0
    0.4545    0.8470    0.2913 C   0  0  1  0  0  0  0  0  0  0  0  0
    0.0508    1.5074    1.5464 C   0  0  1  0  0  0  0  0  0  0  0  0
   -0.0268    0.4740    2.6816 C   0  0  2  0  0  0  0  0  0  0  0  0
    1.4906    4.5759    1.5345 O   0  0  0  0  0  0  0  0  0  0  0  0
    0.3976    3.5984   -0.7696 O   0  0  0  0  0  0  0  0  0  0  0  0
    2.8189    1.0381   -0.0905 O   0  0  0  0  0  0  0  0  0  0  0  0
   -0.5858    0.6863   -0.6262 O   0  0  0  0  0  0  0  0  0  0  0  0
    0.7787    2.5235    2.0431 O   0  0  0  0  0  0  0  0  0  0  0  0
   -0.6454    1.0683    3.7850 O   0  0  0  0  0  0  0  0  0  0  0  0
    2.6863    2.9541    1.5499 H   0  0  0  0  0  0  0  0  0  0  0  0
    2.3947    3.4641   -0.6882 H   0  0  0  0  0  0  0  0  0  0  0  0
    1.4736    1.3865   -1.5541 H   0  0  0  0  0  0  0  0  0  0  0  0
    0.8286   -0.1751    0.5130 H   0  0  0  0  0  0  0  0  0  0  0  0
   -1.0082    1.8525    1.4255 H   0  0  0  0  0  0  0  0  0  0  0  0
    1.0425    0.3043    2.9967 H   0  0  0  0  0  0  0  0  0  0  0  0
   -0.4975   -0.4595    2.3830 H   0  0  0  0  0  0  0  0  0  0  0  0
    3.4363    1.1857   -0.8410 H   0  0  0  0  0  0  0  0  0  0  0  0
   -2.2381   -1.0867   -0.7146 C   0  0  2  0  0  0  0  0  0  0  0  0
   -2.3805   -2.5041   -1.1626 C   0  0  2  0  0  0  0  0  0  0  0  0
   -1.1047   -3.1533   -1.6178 C   0  0  1  0  0  0  0  0  0  0  0  0
   -0.2033   -2.2650   -2.4118 C   0  0  1  0  0  0  0  0  0  0  0  0
   -0.3220   -2.6304   -3.8839 C   0  0  2  0  0  0  0  0  0  0  0  0
   -0.8105   -0.6447   -0.9541 C   0  0  1  0  0  0  0  0  0  0  0  0
   -2.5875   -0.9344    0.6241 O   0  0  0  0  0  0  0  0  0  0  0  0
   -3.3226   -2.6131   -2.1930 O   0  0  0  0  0  0  0  0  0  0  0  0
   -0.4296   -3.7544   -0.5323 O   0  0  0  0  0  0  0  0  0  0  0  0
   -0.5587   -0.9049   -2.3006 O   0  0  0  0  0  0  0  0  0  0  0  0
   -1.6118   -2.4354   -4.3292 O   0  0  0  0  0  0  0  0  0  0  0  0
   -2.8820   -0.4312   -1.3321 H   0  0  0  0  0  0  0  0  0  0  0  0
   -2.7499   -3.1275   -0.3021 H   0  0  0  0  0  0  0  0  0  0  0  0
   -1.4188   -4.0321   -2.2445 H   0  0  0  0  0  0  0  0  0  0  0  0
    0.8740   -2.3486   -2.1438 H   0  0  0  0  0  0  0  0  0  0  0  0
   -0.0635   -3.7250   -3.9362 H   0  0  0  0  0  0  0  0  0  0  0  0
    0.4114   -2.0991   -4.4979 H   0  0  0  0  0  0  0  0  0  0  0  0
   -0.0881   -1.2556   -0.3894 H   0  0  0  0  0  0  0  0  0  0  0  0
   -3.4727   -1.3433    0.7621 H   0  0  0  0  0  0  0  0  0  0  0  0
   -3.5145   -3.5741   -2.3335 H   0  0  0  0  0  0  0  0  0  0  0  0
   -0.8815   -3.5119    0.3133 H   0  0  0  0  0  0  0  0  0  0  0  0
    2.1557    5.0692    0.9785 H   0  0  0  0  0  0  0  0  0  0  0  0
    0.0468    4.3561   -0.2297 H   0  0  0  0  0  0  0  0  0  0  0  0
   -0.0195    1.3364    4.4899 H   0  0  0  0  0  0  0  0  0  0  0  0
   -1.5724   -1.8594   -5.1366 H   0  0  0  0  0  0  0  0  0  0  0  0
  1  2  1  0
  1  7  1  0
  1 11  1  0
  1 13  1  1
  2  3  1  0
  2  8  1  0
  2 14  1  6
  3  4  1  0
  3  9  1  0
  3 15  1  6
  4  5  1  0
  4 10  1  0
  4 16  1  1
  5  6  1  0
  5 11  1  0
  5 17  1  6
  6 12  1  0
  6 18  1  1
  6 19  1  0
  9 20  1  0
 10 26  1  0
 21 22  1  0
 21 26  1  0
 21 27  1  0
 21 32  1  6
 22 23  1  0
 22 28  1  0
 22 33  1  1
 23 24  1  0
 23 29  1  0
 23 34  1  6
 24 25  1  0
 24 30  1  0
 24 35  1  1
 25 31  1  0
 25 36  1  1
 25 37  1  0
 26 30  1  0
 26 38  1  1
 27 39  1  0
 28 40  1  0
 29 41  1  0
  7 42  1  0
  8 43  1  0
 12 44  1  0
 31 45  1  0
M  END
$$$$
GLUCANASE
     RDKit          3D

 45 46  0  0  0  0  0  0  0  0999 V2000
   -2.3787    0.5583   -2.2682 C   0  0  1  0  0  0  0  0  0  0  0  0
   -2.5755   -0.7520   -1.5326 C   0  0  1  0  0  0  0  0  0  0  0  0
   -2.0569   -0.6557   -0.1037 C   0  0  2  0  0  0  0  0  0  0  0  0
   -0.9256    0.3576   -0.1603 C   0  0  1  0  0  0  0  0  0  0  0  0
   -1.5757    1.6895   -0.3937 C   0  0  1  0  0  0  0  0  0  0  0  0
   -0.5602    2.8081   -0.5231 C   0  0  2  0  0  0  0  0  0  0  0  0
   -3.4088    0.6583   -3.2024 O   0  0  0  0  0  0  0  0  0  0  0  0
   -3.9263   -1.0603   -1.5449 O   0  0  0  0  0  0  0  0  0  0  0  0
   -1.6637   -1.9053    0.3137 O   0  0  0  0  0  0  0  0  0  0  0  0
   -0.1148    0.2959    0.9506 O   0  0  0  0  0  0  0  0  0  0  0  0
   -2.4505    1.6504   -1.4446 O   0  0  0  0  0  0  0  0  0  0  0  0
    0.1531    2.5898   -1.6959 O   0  0  0  0  0  0  0  0  0  0  0  0
   -1.4308    0.5620   -2.8736 H   0  0  0  0  0  0  0  0  0  0  0  0
   -2.0314   -1.5269   -2.1115 H   0  0  0  0  0  0  0  0  0  0  0  0
   -2.8533   -0.2116    0.5288 H   0  0  0  0  0  0  0  0  0  0  0  0
   -0.3532    0.0955   -1.0894 H   0  0  0  0  0  0  0  0  0  0  0  0
   -2.1740    1.9153    0.5243 H   0  0  0  0  0  0  0  0  0  0  0  0
    0.0989    2.8752    0.3458 H   0  0  0  0  0  0  0  0  0  0  0  0
   -1.0906    3.7827   -0.6624 H   0  0  0  0  0  0  0  0  0  0  0  0
   -2.3651   -2.2426    0.9288 H   0  0  0  0  0  0  0  0  0  0  0  0
    2.2147    0.9860    0.9094 C   0  0  2  0  0  0  0  0  0  0  0  0
    3.3560    0.2885    1.6205 C   0  0  2  0  0  0  0  0  0  0  0  0
    2.7730   -0.2543    2.9118 C   0  0  1  0  0  0  0  0  0  0  0  0
    1.7622   -1.3065    2.5005 C   0  0  1  0  0  0  0  0  0  0  0  0
    0.5098   -1.2352    3.3499 C   0  0  2  0  0  0  0  0  0  0  0  0
    1.1858   -0.0840    0.6171 C   0  0  1  0  0  0  0  0  0  0  0  0
    2.6960    1.5716   -0.2498 O   0  0  0  0  0  0  0  0  0  0  0  0
    4.4270    1.1419    1.8496 O   0  0  0  0  0  0  0  0  0  0  0  0
    3.8304   -0.7773    3.6540 O   0  0  0  0  0  0  0  0  0  0  0  0
    1.5236   -1.3178    1.1466 O   0  0  0  0  0  0  0  0  0  0  0  0
   -0.2538   -2.3773    3.0336 O   0  0  0  0  0  0  0  0  0  0  0  0
    1.8309    1.7404    1.6340 H   0  0  0  0  0  0  0  0  0  0  0  0
    3.6782   -0.5466    0.9426 H   0  0  0  0  0  0  0  0  0  0  0  0
    2.2595    0.5880    3.4137 H   0  0  0  0  0  0  0  0  0  0  0  0
    2.2382   -2.2926    2.7481 H   0  0  0  0  0  0  0  0  0  0  0  0
   -0.0869   -0.3359    3.2059 H   0  0  0  0  0  0  0  0  0  0  0  0
    0.8247   -1.3980    4.4029 H   0  0  0  0  0  0  0  0  0  0  0  0
    1.1907   -0.2272   -0.4842 H   0  0  0  0  0  0  0  0  0  0  0  0
    2.6414    0.9085   -1.0010 H   0  0  0  0  0  0  0  0  0  0  0  0
    5.2316    0.5527    1.9682 H   0  0  0  0  0  0  0  0  0  0  0  0
    3.6687   -0.5868    4.6144 H   0  0  0  0  0  0  0  0  0  0  0  0
   -3.2334    0.1172   -4.0121 H   0  0  0  0  0  0  0  0  0  0  0  0
   -4.1498   -1.5563   -2.3771 H   0  0  0  0  0  0  0  0  0  0  0  0
    0.7370    3.3196   -1.9639 H   0  0  0  0  0  0  0  0  0  0  0  0
   -1.2213   -2.1764    3.0519 H   0  0  0  0  0  0  0  0  0  0  0  0
  1  2  1  0
  1  7  1  0
  1 11  1  0
  1 13  1  6
  2  3  1  0
  2  8  1  0
  2 14  1  6
  3  4  1  0
  3  9  1  0
  3 15  1  1
  4  5  1  0
  4 10  1  0
  4 16  1  6
  5  6  1  0
  5 11  1  0
  5 17  1  1
  6 12  1  0
  6 18  1  1
  6 19  1  0
  9 20  1  0
 10 26  1  0
 21 22  1  0
 21 26  1  0
 21 27  1  0
 21 32  1  1
 22 23  1  0
 22 28  1  0
 22 33  1  6
 23 24  1  0
 23 29  1  0
 23 34  1  1
 24 25  1  0
 24 30  1  0
 24 35  1  1
 25 31  1  0
 25 36  1  1
 25 37  1  0
 26 30  1  0
 26 38  1  6
 27 39  1  0
 28 40  1  0
 29 41  1  0
  7 42  1  0
  8 43  1  0
 12 44  1  0
 31 45  1  0
M  END
$$$$
GLUCANASE
     RDKit          3D

 45 46  0  0  0  0  0  0  0  0999 V2000
   -2.7572    2.0578    1.6756 C   0  0  1  0  0  0  0  0  0  0  0  0
   -2.5956    2.2189    0.1898 C   0  0  1  0  0  0  0  0  0  0  0  0
   -1.9676    1.0001   -0.4493 C   0  0  2  0  0  0  0  0  0  0  0  0
   -1.5032    0.1149    0.7214 C   0  0  1  0  0  0  0  0  0  0  0  0
   -2.7600   -0.2632    1.4288 C   0  0  1  0  0  0  0  0  0  0  0  0
   -2.5217   -1.4183    2.3373 C   0  0  2  0  0  0  0  0  0  0  0  0
   -3.7114    3.0336    2.0553 O   0  0  0  0  0  0  0  0  0  0  0  0
   -3.8429    2.5042   -0.3634 O   0  0  0  0  0  0  0  0  0  0  0  0
   -0.9226    1.3083   -1.3064 O   0  0  0  0  0  0  0  0  0  0  0  0
   -0.7198   -0.9199    0.2588 O   0  0  0  0  0  0  0  0  0  0  0  0
   -3.2631    0.8537    2.0861 O   0  0  0  0  0  0  0  0  0  0  0  0
   -3.6835   -1.8510    2.9764 O   0  0  0  0  0  0  0  0  0  0  0  0
   -1.8357    2.3761    2.2448 H   0  0  0  0  0  0  0  0  0  0  0  0
   -1.9365    3.0902    0.0178 H   0  0  0  0  0  0  0  0  0  0  0  0
   -2.7705    0.4267   -0.9525 H   0  0  0  0  0  0  0  0  0  0  0  0
   -0.9018    0.8005    1.3621 H   0  0  0  0  0  0  0  0  0  0  0  0
   -3.5458   -0.5006    0.6453 H   0  0  0  0  0  0  0  0  0  0  0  0
   -1.7496   -1.1204    3.0595 H   0  0  0  0  0  0  0  0  0  0  0  0
   -2.1234   -2.2599    1.7390 H   0  0  0  0  0  0  0  0  0  0  0  0
   -1.2462    1.2261   -2.2541 H   0  0  0  0  0  0  0  0  0  0  0  0
    1.2289   -1.8796    1.3889 C   0  0  2  0  0  0  0  0  0  0  0  0
    2.4925   -1.2762    2.0276 C   0  0  2  0  0  0  0  0  0  0  0  0
    3.2889   -0.4444    1.0897 C   0  0  1  0  0  0  0  0  0  0  0  0
    2.4628    0.2754    0.0567 C   0  0  1  0  0  0  0  0  0  0  0  0
    3.3694    0.8065   -1.0260 C   0  0  2  0  0  0  0  0  0  0  0  0
    0.5803   -0.7342    0.6909 C   0  0  1  0  0  0  0  0  0  0  0  0
    0.5225   -2.4674    2.3992 O   0  0  0  0  0  0  0  0  0  0  0  0
    3.2639   -2.2443    2.6245 O   0  0  0  0  0  0  0  0  0  0  0  0
    3.9506    0.5389    1.8323 O   0  0  0  0  0  0  0  0  0  0  0  0
    1.4302   -0.5129   -0.4431 O   0  0  0  0  0  0  0  0  0  0  0  0
    4.3577    1.5766   -0.3988 O   0  0  0  0  0  0  0  0  0  0  0  0
    1.5787   -2.6681    0.6664 H   0  0  0  0  0  0  0  0  0  0  0  0
    2.0811   -0.5962    2.8191 H   0  0  0  0  0  0  0  0  0  0  0  0
    4.0815   -0.9922    0.5504 H   0  0  0  0  0  0  0  0  0  0  0  0
    1.9891    1.1378    0.5710 H   0  0  0  0  0  0  0  0  0  0  0  0
    2.7703    1.4201   -1.7337 H   0  0  0  0  0  0  0  0  0  0  0  0
    3.7784   -0.0474   -1.5849 H   0  0  0  0  0  0  0  0  0  0  0  0
    0.6496    0.1661    1.3343 H   0  0  0  0  0  0  0  0  0  0  0  0
    0.5353   -3.4626    2.3870 H   0  0  0  0  0  0  0  0  0  0  0  0
    3.5102   -2.0181    3.5729 H   0  0  0  0  0  0  0  0  0  0  0  0
    3.2613    1.2311    2.0497 H   0  0  0  0  0  0  0  0  0  0  0  0
   -3.8852    2.9304    3.0352 H   0  0  0  0  0  0  0  0  0  0  0  0
   -4.0307    3.4637   -0.3682 H   0  0  0  0  0  0  0  0  0  0  0  0
   -3.9323   -2.7697    2.7381 H   0  0  0  0  0  0  0  0  0  0  0  0
    4.1014    2.5237   -0.3262 H   0  0  0  0  0  0  0  0  0  0  0  0
  1  2  1  0
  1  7  1  0
  1 11  1  0
  1 13  1  1
  2  3  1  0
  2  8  1  0
  2 14  1  1
  3  4  1  0
  3  9  1  0
  3 15  1  6
  4  5  1  0
  4 10  1  0
  4 16  1  1
  5  6  1  0
  5 11  1  0
  5 17  1  6
  6 12  1  0
  6 18  1  1
  6 19  1  0
  9 20  1  0
 10 26  1  0
 21 22  1  0
 21 26  1  0
 21 27  1  0
 21 32  1  6
 22 23  1  0
 22 28  1  0
 22 33  1  1
 23 24  1  0
 23 29  1  0
 23 34  1  6
 24 25  1  0
 24 30  1  0
 24 35  1  1
 25 31  1  0
 25 36  1  6
 25 37  1  0
 26 30  1  0
 26 38  1  1
 27 39  1  0
 28 40  1  0
 29 41  1  0
  7 42  1  0
  8 43  1  0
 12 44  1  0
 31 45  1  0
M  END
$$$$
GLUCANASE
     RDKit          3D

 45 46  0  0  0  0  0  0  0  0999 V2000
    3.2303    3.1889   -0.4600 C   0  0  1  0  0  0  0  0  0  0  0  0
    3.6559    1.9486    0.2826 C   0  0  1  0  0  0  0  0  0  0  0  0
    2.8846    0.7812   -0.2788 C   0  0  2  0  0  0  0  0  0  0  0  0
    1.5367    1.3294   -0.7547 C   0  0  1  0  0  0  0  0  0  0  0  0
    1.8406    2.1251   -1.9815 C   0  0  1  0  0  0  0  0  0  0  0  0
    0.7505    3.0847   -2.3668 C   0  0  2  0  0  0  0  0  0  0  0  0
    4.1427    4.2176   -0.3359 O   0  0  0  0  0  0  0  0  0  0  0  0
    5.0328    1.7439    0.1734 O   0  0  0  0  0  0  0  0  0  0  0  0
    2.7443   -0.2673    0.6080 O   0  0  0  0  0  0  0  0  0  0  0  0
    0.7575    0.2051   -1.0094 O   0  0  0  0  0  0  0  0  0  0  0  0
    3.0159    2.8504   -1.8024 O   0  0  0  0  0  0  0  0  0  0  0  0
    0.5092    4.0537   -1.4305 O   0  0  0  0  0  0  0  0  0  0  0  0
    2.2767    3.5148   -0.0020 H   0  0  0  0  0  0  0  0  0  0  0  0
    3.4263    2.0968    1.3545 H   0  0  0  0  0  0  0  0  0  0  0  0
    3.4561    0.4459   -1.1936 H   0  0  0  0  0  0  0  0  0  0  0  0
    1.0669    1.8759    0.0629 H   0  0  0  0  0  0  0  0  0  0  0  0
    2.0291    1.4337   -2.8268 H   0  0  0  0  0  0  0  0  0  0  0  0
   -0.1604    2.4838   -2.6010 H   0  0  0  0  0  0  0  0  0  0  0  0
    1.0281    3.5746   -3.3226 H   0  0  0  0  0  0  0  0  0  0  0  0
    3.6275   -0.7228    0.6430 H   0  0  0  0  0  0  0  0  0  0  0  0
   -1.5963    0.2393   -0.9739 C   0  0  2  0  0  0  0  0  0  0  0  0
   -2.6133   -0.8489   -0.7990 C   0  0  2  0  0  0  0  0  0  0  0  0
   -2.5296   -1.5009    0.5389 C   0  0  1  0  0  0  0  0  0  0  0  0
   -1.1132   -1.9217    0.7498 C   0  0  1  0  0  0  0  0  0  0  0  0
   -0.7027   -3.1277   -0.0761 C   0  0  2  0  0  0  0  0  0  0  0  0
   -0.3589    0.1040   -0.1765 C   0  0  1  0  0  0  0  0  0  0  0  0
   -2.2657    1.4447   -0.7497 O   0  0  0  0  0  0  0  0  0  0  0  0
   -2.5140   -1.8130   -1.8042 O   0  0  0  0  0  0  0  0  0  0  0  0
   -2.8255   -0.5500    1.5170 O   0  0  0  0  0  0  0  0  0  0  0  0
   -0.1795   -0.9604    0.6300 O   0  0  0  0  0  0  0  0  0  0  0  0
    0.5259   -3.5351    0.4532 O   0  0  0  0  0  0  0  0  0  0  0  0
   -1.3598    0.2515   -2.0605 H   0  0  0  0  0  0  0  0  0  0  0  0
   -3.6670   -0.4538   -0.9029 H   0  0  0  0  0  0  0  0  0  0  0  0
   -3.2032   -2.3558    0.5527 H   0  0  0  0  0  0  0  0  0  0  0  0
   -1.0694   -2.2948    1.8166 H   0  0  0  0  0  0  0  0  0  0  0  0
   -0.5141   -2.8063   -1.1143 H   0  0  0  0  0  0  0  0  0  0  0  0
   -1.4344   -3.9547    0.0199 H   0  0  0  0  0  0  0  0  0  0  0  0
   -0.3027    1.0052    0.4925 H   0  0  0  0  0  0  0  0  0  0  0  0
   -2.8927    1.6683   -1.4561 H   0  0  0  0  0  0  0  0  0  0  0  0
   -2.9849   -2.6389   -1.5396 H   0  0  0  0  0  0  0  0  0  0  0  0
   -3.0944    0.3252    1.1347 H   0  0  0  0  0  0  0  0  0  0  0  0
    3.8688    4.8979    0.3197 H   0  0  0  0  0  0  0  0  0  0  0  0
    5.4588    2.3002    0.8717 H   0  0  0  0  0  0  0  0  0  0  0  0
    0.2223    4.9221   -1.7759 H   0  0  0  0  0  0  0  0  0  0  0  0
    1.2636   -3.3914   -0.1668 H   0  0  0  0  0  0  0  0  0  0  0  0
  1  2  1  0
  1  7  1  0
  1 11  1  0
  1 13  1  1
  2  3  1  0
  2  8  1  0
  2 14  1  1
  3  4  1  0
  3  9  1  0
  3 15  1  6
  4  5  1  0
  4 10  1  0
  4 16  1  1
  5  6  1  0
  5 11  1  0
  5 17  1  6
  6 12  1  0
  6 18  1  6
  6 19  1  0
  9 20  1  0
 10 26  1  0
 21 22  1  0
 21 26  1  0
 21 27  1  0
 21 32  1  6
 22 23  1  0
 22 28  1  0
 22 33  1  1
 23 24  1  0
 23 29  1  0
 23 34  1  6
 24 25  1  0
 24 30  1  0
 24 35  1  1
 25 31  1  0
 25 36  1  6
 25 37  1  0
 26 30  1  0
 26 38  1  1
 27 39  1  0
 28 40  1  0
 29 41  1  0
  7 42  1  0
  8 43  1  0
 12 44  1  0
 31 45  1  0
M  END
$$$$
GLUCANASE
     RDKit          3D

 45 46  0  0  0  0  0  0  0  0999 V2000
   -0.7812    4.0851    1.3116 C   0  0  1  0  0  0  0  0  0  0  0  0
    0.2729    3.9819    0.2539 C   0  0  1  0  0  0  0  0  0  0  0  0
    1.1153    2.7693    0.2823 C   0  0  2  0  0  0  0  0  0  0  0  0
    0.6810    1.6401    1.1614 C   0  0  1  0  0  0  0  0  0  0  0  0
   -0.1562    2.1123    2.3340 C   0  0  1  0  0  0  0  0  0  0  0  0
    0.7388    2.8566    3.2940 C   0  0  2  0  0  0  0  0  0  0  0  0
   -1.9351    4.7335    0.8642 O   0  0  0  0  0  0  0  0  0  0  0  0
   -0.3803    4.0906   -0.9888 O   0  0  0  0  0  0  0  0  0  0  0  0
    2.4340    3.1415    0.5600 O   0  0  0  0  0  0  0  0  0  0  0  0
    0.1198    0.5775    0.4778 O   0  0  0  0  0  0  0  0  0  0  0  0
   -1.1894    2.8604    1.8177 O   0  0  0  0  0  0  0  0  0  0  0  0
    1.7406    1.9797    3.7388 O   0  0  0  0  0  0  0  0  0  0  0  0
   -0.4239    4.6728    2.1845 H   0  0  0  0  0  0  0  0  0  0  0  0
    0.8823    4.9325    0.3100 H   0  0  0  0  0  0  0  0  0  0  0  0
    1.1901    2.3347   -0.7577 H   0  0  0  0  0  0  0  0  0  0  0  0
    1.5943    1.2060    1.6330 H   0  0  0  0  0  0  0  0  0  0  0  0
   -0.5750    1.2467    2.8545 H   0  0  0  0  0  0  0  0  0  0  0  0
    0.1737    3.2608    4.1513 H   0  0  0  0  0  0  0  0  0  0  0  0
    1.2643    3.7113    2.8267 H   0  0  0  0  0  0  0  0  0  0  0  0
    2.6866    3.7713   -0.1799 H   0  0  0  0  0  0  0  0  0  0  0  0
   -0.1087   -1.5834    1.3223 C   0  0  2  0  0  0  0  0  0  0  0  0
    0.1495   -2.9664    0.7296 C   0  0  2  0  0  0  0  0  0  0  0  0
   -0.4447   -2.8819   -0.6614 C   0  0  1  0  0  0  0  0  0  0  0  0
    0.3131   -1.8106   -1.3974 C   0  0  1  0  0  0  0  0  0  0  0  0
   -0.7046   -0.9268   -2.0873 C   0  0  2  0  0  0  0  0  0  0  0  0
    0.7824   -0.6232    0.5576 C   0  0  1  0  0  0  0  0  0  0  0  0
    0.2486   -1.6772    2.6615 O   0  0  0  0  0  0  0  0  0  0  0  0
   -0.4454   -3.9678    1.4897 O   0  0  0  0  0  0  0  0  0  0  0  0
   -0.4184   -4.1061   -1.3116 O   0  0  0  0  0  0  0  0  0  0  0  0
    1.2134   -1.1187   -0.6427 O   0  0  0  0  0  0  0  0  0  0  0  0
   -1.5496   -1.7655   -2.8142 O   0  0  0  0  0  0  0  0  0  0  0  0
   -1.1493   -1.3046    1.1413 H   0  0  0  0  0  0  0  0  0  0  0  0
    1.2304   -3.0940    0.5979 H   0  0  0  0  0  0  0  0  0  0  0  0
   -1.5052   -2.5861   -0.5172 H   0  0  0  0  0  0  0  0  0  0  0  0
    0.8770   -2.3248   -2.2065 H   0  0  0  0  0  0  0  0  0  0  0  0
   -0.2513   -0.2437   -2.8246 H   0  0  0  0  0  0  0  0  0  0  0  0
   -1.3563   -0.4101   -1.3487 H   0  0  0  0  0  0  0  0  0  0  0  0
    1.6877   -0.5004    1.1892 H   0  0  0  0  0  0  0  0  0  0  0  0
   -0.2981   -1.1023    3.2609 H   0  0  0  0  0  0  0  0  0  0  0  0
    0.3037   -4.5806    1.7629 H   0  0  0  0  0  0  0  0  0  0  0  0
   -0.1048   -4.7769   -0.6797 H   0  0  0  0  0  0  0  0  0  0  0  0
   -2.1649    4.4406   -0.0606 H   0  0  0  0  0  0  0  0  0  0  0  0
    0.2436    3.8128   -1.7030 H   0  0  0  0  0  0  0  0  0  0  0  0
    1.4445    1.0240    3.6601 H   0  0  0  0  0  0  0  0  0  0  0  0
   -1.0808   -2.6249   -3.0627 H   0  0  0  0  0  0  0  0  0  0  0  0
  1  2  1  0
  1  7  1  0
  1 11  1  0
  1 13  1  1
  2  3  1  0
  2  8  1  0
  2 14  1  1
  3  4  1  0
  3  9  1  0
  3 15  1  6
  4  5  1  0
  4 10  1  0
  4 16  1  1
  5  6  1  0
  5 11  1  0
  5 17  1  1
  6 12  1  0
  6 18  1  1
  6 19  1  0
  9 20  1  0
 10 26  1  0
 21 22  1  0
 21 26  1  0
 21 27  1  0
 21 32  1  1
 22 23  1  0
 22 28  1  0
 22 33  1  6
 23 24  1  0
 23 29  1  0
 23 34  1  1
 24 25  1  0
 24 30  1  0
 24 35  1  6
 25 31  1  0
 25 36  1  6
 25 37  1  0
 26 30  1  0
 26 38  1  1
 27 39  1  0
 28 40  1  0
 29 41  1  0
  7 42  1  0
  8 43  1  0
 12 44  1  0
 31 45  1  0
M  END
$$$$
GLUCANASE
     RDKit          3D

 45 46  0  0  0  0  0  0  0  0999 V2000
    1.7997    2.5083    1.6872 C   0  0  1  0  0  0  0  0  0  0  0  0
    0.7314    2.0187    2.6068 C   0  0  1  0  0  0  0  0  0  0  0  0
   -0.0522    0.9976    1.8096 C   0  0  2  0  0  0  0  0  0  0  0  0
   -0.3169    1.3916    0.3968 C   0  0  1  0  0  0  0  0  0  0  0  0
    0.2857    2.6596   -0.0758 C   0  0  1  0  0  0  0  0  0  0  0  0
   -0.7499    3.7818   -0.1770 C   0  0  2  0  0  0  0  0  0  0  0  0
    2.5666    1.4271    1.2835 O   0  0  0  0  0  0  0  0  0  0  0  0
    1.3659    1.3584    3.6816 O   0  0  0  0  0  0  0  0  0  0  0  0
   -1.2325    0.6865    2.5069 O   0  0  0  0  0  0  0  0  0  0  0  0
   -0.0320    0.2917   -0.4115 O   0  0  0  0  0  0  0  0  0  0  0  0
    1.3385    3.1709    0.6051 O   0  0  0  0  0  0  0  0  0  0  0  0
   -1.1650    4.2188    1.0570 O   0  0  0  0  0  0  0  0  0  0  0  0
    2.4423    3.2074    2.2818 H   0  0  0  0  0  0  0  0  0  0  0  0
    0.1050    2.7981    3.0583 H   0  0  0  0  0  0  0  0  0  0  0  0
    0.5605    0.0732    1.8672 H   0  0  0  0  0  0  0  0  0  0  0  0
   -1.4319    1.5093    0.2989 H   0  0  0  0  0  0  0  0  0  0  0  0
    0.6397    2.5055   -1.1186 H   0  0  0  0  0  0  0  0  0  0  0  0
   -1.6062    3.5089   -0.8069 H   0  0  0  0  0  0  0  0  0  0  0  0
   -0.2300    4.6225   -0.6970 H   0  0  0  0  0  0  0  0  0  0  0  0
   -1.0661    0.1548    3.3016 H   0  0  0  0  0  0  0  0  0  0  0  0
   -0.8210   -0.3326   -2.5066 C   0  0  2  0  0  0  0  0  0  0  0  0
   -0.1646   -1.6775   -2.7510 C   0  0  2  0  0  0  0  0  0  0  0  0
   -1.2554   -2.7248   -2.6085 C   0  0  1  0  0  0  0  0  0  0  0  0
   -2.0907   -2.3110   -1.4240 C   0  0  1  0  0  0  0  0  0  0  0  0
   -2.4992   -3.5755   -0.6771 C   0  0  2  0  0  0  0  0  0  0  0  0
   -1.1262   -0.2545   -1.0229 C   0  0  1  0  0  0  0  0  0  0  0  0
   -1.9643   -0.1513   -3.2772 O   0  0  0  0  0  0  0  0  0  0  0  0
    0.7250   -1.8886   -1.7037 O   0  0  0  0  0  0  0  0  0  0  0  0
   -1.9720   -2.6746   -3.8162 O   0  0  0  0  0  0  0  0  0  0  0  0
   -1.2926   -1.5675   -0.5356 O   0  0  0  0  0  0  0  0  0  0  0  0
   -1.3405   -4.2523   -0.3348 O   0  0  0  0  0  0  0  0  0  0  0  0
   -0.0583    0.4446   -2.7797 H   0  0  0  0  0  0  0  0  0  0  0  0
    0.3287   -1.7258   -3.7413 H   0  0  0  0  0  0  0  0  0  0  0  0
   -0.7735   -3.7120   -2.4652 H   0  0  0  0  0  0  0  0  0  0  0  0
   -3.0185   -1.7860   -1.6896 H   0  0  0  0  0  0  0  0  0  0  0  0
   -3.0975   -4.2273   -1.3761 H   0  0  0  0  0  0  0  0  0  0  0  0
   -3.1166   -3.3434    0.2057 H   0  0  0  0  0  0  0  0  0  0  0  0
   -2.0837    0.2469   -0.7952 H   0  0  0  0  0  0  0  0  0  0  0  0
   -2.0219    0.7496   -3.6679 H   0  0  0  0  0  0  0  0  0  0  0  0
    1.5477   -2.3695   -1.9723 H   0  0  0  0  0  0  0  0  0  0  0  0
   -1.2703   -2.8458   -4.5195 H   0  0  0  0  0  0  0  0  0  0  0  0
    3.1039    1.7325    0.4900 H   0  0  0  0  0  0  0  0  0  0  0  0
    1.6992    2.0140    4.3412 H   0  0  0  0  0  0  0  0  0  0  0  0
   -0.6966    5.0499    1.3088 H   0  0  0  0  0  0  0  0  0  0  0  0
   -1.4798   -5.2214   -0.1591 H   0  0  0  0  0  0  0  0  0  0  0  0
  1  2  1  0
  1  7  1  0
  1 11  1  0
  1 13  1  1
  2  3  1  0
  2  8  1  0
  2 14  1  1
  3  4  1  0
  3  9  1  0
  3 15  1  6
  4  5  1  0
  4 10  1  0
  4 16  1  1
  5  6  1  0
  5 11  1  0
  5 17  1  6
  6 12  1  0
  6 18  1  6
  6 19  1  0
  9 20  1  0
 10 26  1  0
 21 22  1  0
 21 26  1  0
 21 27  1  0
 21 32  1  6
 22 23  1  0
 22 28  1  0
 22 33  1  6
 23 24  1  0
 23 29  1  0
 23 34  1  1
 24 25  1  0
 24 30  1  0
 24 35  1  6
 25 31  1  0
 25 36  1  6
 25 37  1  0
 26 30  1  0
 26 38  1  6
 27 39  1  0
 28 40  1  0
 29 41  1  0
  7 42  1  0
  8 43  1  0
 12 44  1  0
 31 45  1  0
M  END
$$$$
GLUCANASE
     RDKit          3D

 45 46  0  0  0  0  0  0  0  0999 V2000
   -2.5598    0.5046    3.5855 C   0  0  1  0  0  0  0  0  0  0  0  0
   -1.7711    1.6637    2.9779 C   0  0  1  0  0  0  0  0  0  0  0  0
   -1.9095    1.4672    1.4865 C   0  0  2  0  0  0  0  0  0  0  0  0
   -1.0924    0.2430    1.1332 C   0  0  1  0  0  0  0  0  0  0  0  0
   -1.5678   -0.8824    1.9936 C   0  0  1  0  0  0  0  0  0  0  0  0
   -0.5592   -1.3904    2.9884 C   0  0  2  0  0  0  0  0  0  0  0  0
   -3.8478    0.9887    3.8858 O   0  0  0  0  0  0  0  0  0  0  0  0
   -2.2960    2.8871    3.3889 O   0  0  0  0  0  0  0  0  0  0  0  0
   -1.5347    2.5850    0.7630 O   0  0  0  0  0  0  0  0  0  0  0  0
   -1.1410   -0.0200   -0.2325 O   0  0  0  0  0  0  0  0  0  0  0  0
   -2.7247   -0.5189    2.6717 O   0  0  0  0  0  0  0  0  0  0  0  0
    0.6256   -1.7680    2.4089 O   0  0  0  0  0  0  0  0  0  0  0  0
   -2.1481    0.1361    4.5261 H   0  0  0  0  0  0  0  0  0  0  0  0
   -0.7177    1.5513    3.2441 H   0  0  0  0  0  0  0  0  0  0  0  0
   -2.9790    1.2858    1.2946 H   0  0  0  0  0  0  0  0  0  0  0  0
   -0.0204    0.4159    1.3956 H   0  0  0  0  0  0  0  0  0  0  0  0
   -1.8610   -1.7720    1.3710 H   0  0  0  0  0  0  0  0  0  0  0  0
   -1.0202   -2.3386    3.4043 H   0  0  0  0  0  0  0  0  0  0  0  0
   -0.4554   -0.7239    3.8436 H   0  0  0  0  0  0  0  0  0  0  0  0
   -1.9563    2.5254   -0.1289 H   0  0  0  0  0  0  0  0  0  0  0  0
    0.3814   -1.3466   -1.4278 C   0  0  2  0  0  0  0  0  0  0  0  0
    1.8887   -1.3043   -1.7169 C   0  0  2  0  0  0  0  0  0  0  0  0
    2.0028   -0.2908   -2.8222 C   0  0  1  0  0  0  0  0  0  0  0  0
    1.2324    0.9529   -2.6599 C   0  0  1  0  0  0  0  0  0  0  0  0
    0.6846    1.4664   -3.9859 C   0  0  2  0  0  0  0  0  0  0  0  0
    0.1014   -0.0010   -0.8554 C   0  0  1  0  0  0  0  0  0  0  0  0
    0.0266   -2.3366   -0.5472 O   0  0  0  0  0  0  0  0  0  0  0  0
    2.3889   -2.5181   -2.1190 O   0  0  0  0  0  0  0  0  0  0  0  0
    3.3471   -0.0594   -3.1581 O   0  0  0  0  0  0  0  0  0  0  0  0
    0.2405    1.0346   -1.7450 O   0  0  0  0  0  0  0  0  0  0  0  0
    1.6248    1.4287   -5.0082 O   0  0  0  0  0  0  0  0  0  0  0  0
   -0.1615   -1.4441   -2.4030 H   0  0  0  0  0  0  0  0  0  0  0  0
    2.4059   -0.8629   -0.8337 H   0  0  0  0  0  0  0  0  0  0  0  0
    1.6043   -0.8341   -3.7301 H   0  0  0  0  0  0  0  0  0  0  0  0
    1.9839    1.7422   -2.3536 H   0  0  0  0  0  0  0  0  0  0  0  0
    0.3541    2.5299   -3.8994 H   0  0  0  0  0  0  0  0  0  0  0  0
   -0.2018    0.9024   -4.3290 H   0  0  0  0  0  0  0  0  0  0  0  0
    0.8389    0.1944   -0.0487 H   0  0  0  0  0  0  0  0  0  0  0  0
   -0.3063   -3.1468   -1.0163 H   0  0  0  0  0  0  0  0  0  0  0  0
    2.2545   -2.5785   -3.1153 H   0  0  0  0  0  0  0  0  0  0  0  0
    3.9240   -0.0256   -2.3546 H   0  0  0  0  0  0  0  0  0  0  0  0
   -3.8592    1.4836    4.7520 H   0  0  0  0  0  0  0  0  0  0  0  0
   -3.0781    3.1366    2.8346 H   0  0  0  0  0  0  0  0  0  0  0  0
    0.6859   -2.6986    2.1039 H   0  0  0  0  0  0  0  0  0  0  0  0
    1.9347    2.3314   -5.2759 H   0  0  0  0  0  0  0  0  0  0  0  0
  1  2  1  0
  1  7  1  0
  1 11  1  0
  1 13  1  1
  2  3  1  0
  2  8  1  0
  2 14  1  6
  3  4  1  0
  3  9  1  0
  3 15  1  1
  4  5  1  0
  4 10  1  0
  4 16  1  1
  5  6  1  0
  5 11  1  0
  5 17  1  6
  6 12  1  0
  6 18  1  1
  6 19  1  0
  9 20  1  0
 10 26  1  0
 21 22  1  0
 21 26  1  0
 21 27  1  0
 21 32  1  6
 22 23  1  0
 22 28  1  0
 22 33  1  1
 23 24  1  0
 23 29  1  0
 23 34  1  6
 24 25  1  0
 24 30  1  0
 24 35  1  1
 25 31  1  0
 25 36  1  1
 25 37  1  0
 26 30  1  0
 26 38  1  1
 27 39  1  0
 28 40  1  0
 29 41  1  0
  7 42  1  0
  8 43  1  0
 12 44  1  0
 31 45  1  0
M  END
$$$$
GLUCANASE
     RDKit          3D

 45 46  0  0  0  0  0  0  0  0999 V2000
   -2.5760    0.1836    2.7153 C   0  0  1  0  0  0  0  0  0  0  0  0
   -1.1133    0.2585    3.1572 C   0  0  1  0  0  0  0  0  0  0  0  0
   -0.1754   -0.1245    2.0667 C   0  0  2  0  0  0  0  0  0  0  0  0
   -0.8100   -0.5646    0.7825 C   0  0  1  0  0  0  0  0  0  0  0  0
   -2.1980   -1.0674    0.9061 C   0  0  1  0  0  0  0  0  0  0  0  0
   -2.4356   -2.4342    0.3078 C   0  0  2  0  0  0  0  0  0  0  0  0
   -2.8475    1.1020    1.7170 O   0  0  0  0  0  0  0  0  0  0  0  0
   -0.9013    1.5686    3.6198 O   0  0  0  0  0  0  0  0  0  0  0  0
    0.6794   -1.1274    2.5808 O   0  0  0  0  0  0  0  0  0  0  0  0
   -0.7443    0.5280   -0.1128 O   0  0  0  0  0  0  0  0  0  0  0  0
   -2.7124   -1.1033    2.1943 O   0  0  0  0  0  0  0  0  0  0  0  0
   -1.9823   -2.5753   -0.9801 O   0  0  0  0  0  0  0  0  0  0  0  0
   -3.2282    0.2615    3.6019 H   0  0  0  0  0  0  0  0  0  0  0  0
   -1.0376   -0.4034    4.0486 H   0  0  0  0  0  0  0  0  0  0  0  0
    0.4930    0.7448    1.8912 H   0  0  0  0  0  0  0  0  0  0  0  0
   -0.1660   -1.3759    0.3826 H   0  0  0  0  0  0  0  0  0  0  0  0
   -2.8928   -0.3812    0.3386 H   0  0  0  0  0  0  0  0  0  0  0  0
   -3.5492   -2.5827    0.2884 H   0  0  0  0  0  0  0  0  0  0  0  0
   -2.0625   -3.2197    1.0008 H   0  0  0  0  0  0  0  0  0  0  0  0
    1.4867   -0.7333    2.9999 H   0  0  0  0  0  0  0  0  0  0  0  0
   -0.7174    0.3579   -2.4628 C   0  0  2  0  0  0  0  0  0  0  0  0
   -1.4182    1.7232   -2.4330 C   0  0  2  0  0  0  0  0  0  0  0  0
   -0.2817    2.7230   -2.5521 C   0  0  1  0  0  0  0  0  0  0  0  0
    0.8010    2.4727   -1.5456 C   0  0  1  0  0  0  0  0  0  0  0  0
    0.4606    3.2567   -0.2841 C   0  0  2  0  0  0  0  0  0  0  0  0
    0.0689    0.2938   -1.1922 C   0  0  1  0  0  0  0  0  0  0  0  0
    0.1582    0.4236   -3.5646 O   0  0  0  0  0  0  0  0  0  0  0  0
   -2.0392    1.9326   -1.2194 O   0  0  0  0  0  0  0  0  0  0  0  0
    0.2233    2.7140   -3.8590 O   0  0  0  0  0  0  0  0  0  0  0  0
    1.1266    1.1781   -1.3010 O   0  0  0  0  0  0  0  0  0  0  0  0
    1.5686    3.2611    0.5945 O   0  0  0  0  0  0  0  0  0  0  0  0
   -1.4188   -0.4545   -2.6383 H   0  0  0  0  0  0  0  0  0  0  0  0
   -2.0942    1.8428   -3.2832 H   0  0  0  0  0  0  0  0  0  0  0  0
   -0.6991    3.7397   -2.3792 H   0  0  0  0  0  0  0  0  0  0  0  0
    1.7145    2.9783   -1.9648 H   0  0  0  0  0  0  0  0  0  0  0  0
   -0.4305    2.8592    0.2068 H   0  0  0  0  0  0  0  0  0  0  0  0
    0.3277    4.3245   -0.5543 H   0  0  0  0  0  0  0  0  0  0  0  0
    0.5156   -0.7294   -1.1347 H   0  0  0  0  0  0  0  0  0  0  0  0
   -0.1108   -0.2233   -4.2621 H   0  0  0  0  0  0  0  0  0  0  0  0
   -3.0128    1.9620   -1.2521 H   0  0  0  0  0  0  0  0  0  0  0  0
    1.1447    3.0986   -3.7969 H   0  0  0  0  0  0  0  0  0  0  0  0
   -2.7047    2.0015    2.1116 H   0  0  0  0  0  0  0  0  0  0  0  0
   -0.4613    1.5863    4.5036 H   0  0  0  0  0  0  0  0  0  0  0  0
   -2.6067   -3.1335   -1.5033 H   0  0  0  0  0  0  0  0  0  0  0  0
    1.2924    3.5641    1.4733 H   0  0  0  0  0  0  0  0  0  0  0  0
  1  2  1  0
  1  7  1  0
  1 11  1  0
  1 13  1  1
  2  3  1  0
  2  8  1  0
  2 14  1  1
  3  4  1  0
  3  9  1  0
  3 15  1  6
  4  5  1  0
  4 10  1  0
  4 16  1  6
  5  6  1  0
  5 11  1  0
  5 17  1  6
  6 12  1  0
  6 18  1  6
  6 19  1  0
  9 20  1  0
 10 26  1  0
 21 22  1  0
 21 26  1  0
 21 27  1  0
 21 32  1  6
 22 23  1  0
 22 28  1  0
 22 33  1  6
 23 24  1  0
 23 29  1  0
 23 34  1  1
 24 25  1  0
 24 30  1  0
 24 35  1  6
 25 31  1  0
 25 36  1  1
 25 37  1  0
 26 30  1  0
 26 38  1  1
 27 39  1  0
 28 40  1  0
 29 41  1  0
  7 42  1  0
  8 43  1  0
 12 44  1  0
 31 45  1  0
M  END
$$$$
GLUCANASE
     RDKit          3D

 45 46  0  0  0  0  0  0  0  0999 V2000
   -2.2648   -0.8873   -2.5911 C   0  0  1  0  0  0  0  0  0  0  0  0
   -2.6518   -1.8961   -1.5333 C   0  0  1  0  0  0  0  0  0  0  0  0
   -1.6072   -2.0628   -0.4633 C   0  0  2  0  0  0  0  0  0  0  0  0
   -0.5013   -1.0659   -0.4960 C   0  0  1  0  0  0  0  0  0  0  0  0
   -0.0668   -0.6772   -1.8820 C   0  0  1  0  0  0  0  0  0  0  0  0
    1.3057   -1.2694   -2.2205 C   0  0  2  0  0  0  0  0  0  0  0  0
   -2.5497    0.4208   -2.2512 O   0  0  0  0  0  0  0  0  0  0  0  0
   -3.9159   -1.5721   -1.0169 O   0  0  0  0  0  0  0  0  0  0  0  0
   -1.0974   -3.3608   -0.5555 O   0  0  0  0  0  0  0  0  0  0  0  0
   -0.7221    0.0970    0.1888 O   0  0  0  0  0  0  0  0  0  0  0  0
   -0.9219   -1.1156   -2.8734 O   0  0  0  0  0  0  0  0  0  0  0  0
    1.2623   -2.6426   -2.2446 O   0  0  0  0  0  0  0  0  0  0  0  0
   -2.8218   -1.0995   -3.5300 H   0  0  0  0  0  0  0  0  0  0  0  0
   -2.8173   -2.8411   -2.0982 H   0  0  0  0  0  0  0  0  0  0  0  0
   -2.1444   -2.0221    0.5068 H   0  0  0  0  0  0  0  0  0  0  0  0
    0.3722   -1.5485   -0.0028 H   0  0  0  0  0  0  0  0  0  0  0  0
    0.0447    0.4158   -2.0388 H   0  0  0  0  0  0  0  0  0  0  0  0
    1.9930   -0.8933   -1.4235 H   0  0  0  0  0  0  0  0  0  0  0  0
    1.6287   -0.8098   -3.1639 H   0  0  0  0  0  0  0  0  0  0  0  0
   -1.4012   -3.9610    0.1701 H   0  0  0  0  0  0  0  0  0  0  0  0
    0.7280    1.7449    0.8809 C   0  0  2  0  0  0  0  0  0  0  0  0
    1.4171    2.3916    2.0424 C   0  0  2  0  0  0  0  0  0  0  0  0
    0.7185    2.2657    3.3465 C   0  0  1  0  0  0  0  0  0  0  0  0
   -0.0972    1.0048    3.4822 C   0  0  1  0  0  0  0  0  0  0  0  0
   -1.2086    1.3043    4.4981 C   0  0  2  0  0  0  0  0  0  0  0  0
    0.0825    0.4151    1.2362 C   0  0  1  0  0  0  0  0  0  0  0  0
    1.6359    1.6469   -0.1627 O   0  0  0  0  0  0  0  0  0  0  0  0
    1.5515    3.7553    1.7478 O   0  0  0  0  0  0  0  0  0  0  0  0
    1.6909    2.2569    4.3643 O   0  0  0  0  0  0  0  0  0  0  0  0
   -0.7426    0.6887    2.3173 O   0  0  0  0  0  0  0  0  0  0  0  0
   -1.9469    2.3842    3.9734 O   0  0  0  0  0  0  0  0  0  0  0  0
   -0.0960    2.4112    0.5448 H   0  0  0  0  0  0  0  0  0  0  0  0
    2.4651    1.9843    2.0631 H   0  0  0  0  0  0  0  0  0  0  0  0
    0.0725    3.1455    3.5772 H   0  0  0  0  0  0  0  0  0  0  0  0
    0.5487    0.2166    3.9034 H   0  0  0  0  0  0  0  0  0  0  0  0
   -0.7526    1.6586    5.4320 H   0  0  0  0  0  0  0  0  0  0  0  0
   -1.8722    0.4237    4.6456 H   0  0  0  0  0  0  0  0  0  0  0  0
    0.8781   -0.3069    1.4657 H   0  0  0  0  0  0  0  0  0  0  0  0
    2.3610    1.0086    0.0093 H   0  0  0  0  0  0  0  0  0  0  0  0
    2.3787    4.1473    2.1480 H   0  0  0  0  0  0  0  0  0  0  0  0
    1.2796    2.2175    5.2652 H   0  0  0  0  0  0  0  0  0  0  0  0
   -1.8537    1.0721   -2.4316 H   0  0  0  0  0  0  0  0  0  0  0  0
   -3.7501   -1.1058   -0.1601 H   0  0  0  0  0  0  0  0  0  0  0  0
    1.0409   -2.9295   -3.1804 H   0  0  0  0  0  0  0  0  0  0  0  0
   -2.2020    2.2342    3.0235 H   0  0  0  0  0  0  0  0  0  0  0  0
  1  2  1  0
  1  7  1  0
  1 11  1  0
  1 13  1  6
  2  3  1  0
  2  8  1  0
  2 14  1  6
  3  4  1  0
  3  9  1  0
  3 15  1  1
  4  5  1  0
  4 10  1  0
  4 16  1  1
  5  6  1  0
  5 11  1  0
  5 17  1  1
  6 12  1  0
  6 18  1  1
  6 19  1  0
  9 20  1  0
 10 26  1  0
 21 22  1  0
 21 26  1  0
 21 27  1  0
 21 32  1  6
 22 23  1  0
 22 28  1  0
 22 33  1  1
 23 24  1  0
 23 29  1  0
 23 34  1  1
 24 25  1  0
 24 30  1  0
 24 35  1  1
 25 31  1  0
 25 36  1  1
 25 37  1  0
 26 30  1  0
 26 38  1  1
 27 39  1  0
 28 40  1  0
 29 41  1  0
  7 42  1  0
  8 43  1  0
 12 44  1  0
 31 45  1  0
M  END
$$$$
GLUCANASE
     RDKit          3D

 45 46  0  0  0  0  0  0  0  0999 V2000
   -0.9975   -2.2254    3.4256 C   0  0  1  0  0  0  0  0  0  0  0  0
    0.2476   -1.5406    3.9586 C   0  0  1  0  0  0  0  0  0  0  0  0
    0.8656   -0.6282    2.9296 C   0  0  2  0  0  0  0  0  0  0  0  0
   -0.1056   -0.4947    1.7424 C   0  0  1  0  0  0  0  0  0  0  0  0
   -1.3748   -0.1490    2.4441 C   0  0  1  0  0  0  0  0  0  0  0  0
   -2.4510    0.4946    1.6413 C   0  0  2  0  0  0  0  0  0  0  0  0
   -1.5432   -2.9569    4.4975 O   0  0  0  0  0  0  0  0  0  0  0  0
   -0.1790   -0.8330    5.1015 O   0  0  0  0  0  0  0  0  0  0  0  0
    2.1115   -1.0448    2.6148 O   0  0  0  0  0  0  0  0  0  0  0  0
    0.3524    0.3599    0.7965 O   0  0  0  0  0  0  0  0  0  0  0  0
   -1.9377   -1.3296    2.9806 O   0  0  0  0  0  0  0  0  0  0  0  0
   -2.0398    1.6875    1.0413 O   0  0  0  0  0  0  0  0  0  0  0  0
   -0.7376   -3.0022    2.6690 H   0  0  0  0  0  0  0  0  0  0  0  0
    0.9413   -2.3210    4.3272 H   0  0  0  0  0  0  0  0  0  0  0  0
    0.9082    0.4027    3.3752 H   0  0  0  0  0  0  0  0  0  0  0  0
   -0.2526   -1.4965    1.2721 H   0  0  0  0  0  0  0  0  0  0  0  0
   -1.2263    0.5063    3.3532 H   0  0  0  0  0  0  0  0  0  0  0  0
   -3.2310    0.8045    2.3709 H   0  0  0  0  0  0  0  0  0  0  0  0
   -2.9817   -0.1930    0.9603 H   0  0  0  0  0  0  0  0  0  0  0  0
    2.2694   -2.0131    2.7818 H   0  0  0  0  0  0  0  0  0  0  0  0
   -0.3467    0.4523   -1.5186 C   0  0  2  0  0  0  0  0  0  0  0  0
    0.1176    0.0249   -2.8955 C   0  0  2  0  0  0  0  0  0  0  0  0
    1.5758    0.2692   -3.1214 C   0  0  1  0  0  0  0  0  0  0  0  0
    2.3971    0.3275   -1.8872 C   0  0  1  0  0  0  0  0  0  0  0  0
    2.9773    1.7190   -1.6776 C   0  0  2  0  0  0  0  0  0  0  0  0
    0.5491   -0.1160   -0.4893 C   0  0  1  0  0  0  0  0  0  0  0  0
   -1.6181   -0.1628   -1.4275 O   0  0  0  0  0  0  0  0  0  0  0  0
   -0.6639    0.7468   -3.8089 O   0  0  0  0  0  0  0  0  0  0  0  0
    2.0633   -0.6520   -4.0479 O   0  0  0  0  0  0  0  0  0  0  0  0
    1.8685   -0.1327   -0.7489 O   0  0  0  0  0  0  0  0  0  0  0  0
    2.0626    2.6525   -1.2665 O   0  0  0  0  0  0  0  0  0  0  0  0
   -0.4366    1.5475   -1.5610 H   0  0  0  0  0  0  0  0  0  0  0  0
   -0.1027   -1.0463   -3.0855 H   0  0  0  0  0  0  0  0  0  0  0  0
    1.6472    1.2490   -3.6399 H   0  0  0  0  0  0  0  0  0  0  0  0
    3.3182   -0.3010   -2.0863 H   0  0  0  0  0  0  0  0  0  0  0  0
    3.4609    2.0845   -2.6240 H   0  0  0  0  0  0  0  0  0  0  0  0
    3.7992    1.7107   -0.9333 H   0  0  0  0  0  0  0  0  0  0  0  0
    0.2426   -1.2045   -0.3995 H   0  0  0  0  0  0  0  0  0  0  0  0
   -2.1140    0.1312   -2.2279 H   0  0  0  0  0  0  0  0  0  0  0  0
   -1.4111    0.2084   -4.1422 H   0  0  0  0  0  0  0  0  0  0  0  0
    2.3625   -1.4610   -3.5793 H   0  0  0  0  0  0  0  0  0  0  0  0
   -2.2921   -2.4779    4.9244 H   0  0  0  0  0  0  0  0  0  0  0  0
   -0.4760   -1.5326    5.7354 H   0  0  0  0  0  0  0  0  0  0  0  0
   -2.8300    2.1508    0.6802 H   0  0  0  0  0  0  0  0  0  0  0  0
    1.5921    3.1053   -2.0326 H   0  0  0  0  0  0  0  0  0  0  0  0
  1  2  1  0
  1  7  1  0
  1 11  1  0
  1 13  1  6
  2  3  1  0
  2  8  1  0
  2 14  1  1
  3  4  1  0
  3  9  1  0
  3 15  1  1
  4  5  1  0
  4 10  1  0
  4 16  1  6
  5  6  1  0
  5 11  1  0
  5 17  1  1
  6 12  1  0
  6 18  1  1
  6 19  1  0
  9 20  1  0
 10 26  1  0
 21 22  1  0
 21 26  1  0
 21 27  1  0
 21 32  1  6
 22 23  1  0
 22 28  1  0
 22 33  1  6
 23 24  1  0
 23 29  1  0
 23 34  1  6
 24 25  1  0
 24 30  1  0
 24 35  1  6
 25 31  1  0
 25 36  1  6
 25 37  1  0
 26 30  1  0
 26 38  1  1
 27 39  1  0
 28 40  1  0
 29 41  1  0
  7 42  1  0
  8 43  1  0
 12 44  1  0
 31 45  1  0
M  END
$$$$
GLUCANASE
     RDKit          3D

 45 46  0  0  0  0  0  0  0  0999 V2000
    0.7636    4.3772    0.2417 C   0  0  1  0  0  0  0  0  0  0  0  0
   -0.5607    3.7836   -0.0140 C   0  0  1  0  0  0  0  0  0  0  0  0
   -0.6101    2.3128   -0.3213 C   0  0  2  0  0  0  0  0  0  0  0  0
    0.7489    1.7629   -0.7044 C   0  0  1  0  0  0  0  0  0  0  0  0
    1.7050    2.3705    0.2850 C   0  0  1  0  0  0  0  0  0  0  0  0
    2.9719    1.6124    0.4414 C   0  0  2  0  0  0  0  0  0  0  0  0
    0.9323    4.5745    1.6324 O   0  0  0  0  0  0  0  0  0  0  0  0
   -1.4648    4.1318    1.0006 O   0  0  0  0  0  0  0  0  0  0  0  0
   -1.5411    2.0113   -1.3126 O   0  0  0  0  0  0  0  0  0  0  0  0
    0.8294    0.4102   -0.6771 O   0  0  0  0  0  0  0  0  0  0  0  0
    1.8711    3.6902   -0.1776 O   0  0  0  0  0  0  0  0  0  0  0  0
    2.6462    0.3487    0.9311 O   0  0  0  0  0  0  0  0  0  0  0  0
    0.8695    5.4224   -0.1744 H   0  0  0  0  0  0  0  0  0  0  0  0
   -0.9807    4.2871   -0.9316 H   0  0  0  0  0  0  0  0  0  0  0  0
   -0.9457    1.7974    0.6023 H   0  0  0  0  0  0  0  0  0  0  0  0
    0.9798    2.2061   -1.7100 H   0  0  0  0  0  0  0  0  0  0  0  0
    1.1911    2.4041    1.2944 H   0  0  0  0  0  0  0  0  0  0  0  0
    3.5758    2.0960    1.2365 H   0  0  0  0  0  0  0  0  0  0  0  0
    3.5233    1.5074   -0.5003 H   0  0  0  0  0  0  0  0  0  0  0  0
   -1.1374    2.1357   -2.2164 H   0  0  0  0  0  0  0  0  0  0  0  0
    2.3186   -1.0770   -1.9172 C   0  0  2  0  0  0  0  0  0  0  0  0
    2.1598   -2.3809   -1.1926 C   0  0  2  0  0  0  0  0  0  0  0  0
    0.7880   -2.3936   -0.5531 C   0  0  1  0  0  0  0  0  0  0  0  0
   -0.2213   -2.0599   -1.5987 C   0  0  1  0  0  0  0  0  0  0  0  0
   -1.5856   -2.1550   -0.9475 C   0  0  2  0  0  0  0  0  0  0  0  0
    1.1251   -0.2007   -1.8664 C   0  0  1  0  0  0  0  0  0  0  0  0
    2.5594   -1.4069   -3.2724 O   0  0  0  0  0  0  0  0  0  0  0  0
    3.1648   -2.5827   -0.2462 O   0  0  0  0  0  0  0  0  0  0  0  0
    0.4848   -3.7080   -0.1271 O   0  0  0  0  0  0  0  0  0  0  0  0
   -0.0198   -0.8856   -2.2673 O   0  0  0  0  0  0  0  0  0  0  0  0
   -1.7659   -3.3601   -0.2730 O   0  0  0  0  0  0  0  0  0  0  0  0
    3.2407   -0.6175   -1.5702 H   0  0  0  0  0  0  0  0  0  0  0  0
    2.1761   -3.2679   -1.8706 H   0  0  0  0  0  0  0  0  0  0  0  0
    0.7940   -1.7036    0.3159 H   0  0  0  0  0  0  0  0  0  0  0  0
   -0.1876   -2.8886   -2.3477 H   0  0  0  0  0  0  0  0  0  0  0  0
   -2.3866   -2.0250   -1.7262 H   0  0  0  0  0  0  0  0  0  0  0  0
   -1.7466   -1.3373   -0.2035 H   0  0  0  0  0  0  0  0  0  0  0  0
    1.2514    0.6031   -2.6499 H   0  0  0  0  0  0  0  0  0  0  0  0
    3.4430   -1.8549   -3.2776 H   0  0  0  0  0  0  0  0  0  0  0  0
    4.0044   -2.1067   -0.5054 H   0  0  0  0  0  0  0  0  0  0  0  0
    1.2615   -4.3114   -0.1990 H   0  0  0  0  0  0  0  0  0  0  0  0
    1.7296    5.1636    1.7263 H   0  0  0  0  0  0  0  0  0  0  0  0
   -2.3848    4.2760    0.6681 H   0  0  0  0  0  0  0  0  0  0  0  0
    1.8949    0.4013    1.6031 H   0  0  0  0  0  0  0  0  0  0  0  0
   -1.6738   -3.2859    0.7123 H   0  0  0  0  0  0  0  0  0  0  0  0
  1  2  1  0
  1  7  1  0
  1 11  1  0
  1 13  1  6
  2  3  1  0
  2  8  1  0
  2 14  1  6
  3  4  1  0
  3  9  1  0
  3 15  1  1
  4  5  1  0
  4 10  1  0
  4 16  1  6
  5  6  1  0
  5 11  1  0
  5 17  1  1
  6 12  1  0
  6 18  1  1
  6 19  1  0
  9 20  1  0
 10 26  1  0
 21 22  1  0
 21 26  1  0
 21 27  1  0
 21 32  1  1
 22 23  1  0
 22 28  1  0
 22 33  1  6
 23 24  1  0
 23 29  1  0
 23 34  1  1
 24 25  1  0
 24 30  1  0
 24 35  1  6
 25 31  1  0
 25 36  1  6
 25 37  1  0
 26 30  1  0
 26 38  1  6
 27 39  1  0
 28 40  1  0
 29 41  1  0
  7 42  1  0
  8 43  1  0
 12 44  1  0
 31 45  1  0
M  END
$$$$
GLUCANASE
     RDKit          3D

 45 46  0  0  0  0  0  0  0  0999 V2000
    3.1377    1.1141    0.7730 C   0  0  1  0  0  0  0  0  0  0  0  0
    2.8513   -0.2734    1.2977 C   0  0  1  0  0  0  0  0  0  0  0  0
    1.7276   -0.2539    2.3108 C   0  0  2  0  0  0  0  0  0  0  0  0
    0.5151    0.3522    1.6164 C   0  0  1  0  0  0  0  0  0  0  0  0
    0.9797    1.6157    0.9241 C   0  0  1  0  0  0  0  0  0  0  0  0
    0.0141    2.7596    1.1551 C   0  0  2  0  0  0  0  0  0  0  0  0
    3.0169    1.1432   -0.6291 O   0  0  0  0  0  0  0  0  0  0  0  0
    2.4367   -1.1492    0.2696 O   0  0  0  0  0  0  0  0  0  0  0  0
    2.0920    0.5775    3.3636 O   0  0  0  0  0  0  0  0  0  0  0  0
   -0.0060   -0.4906    0.6635 O   0  0  0  0  0  0  0  0  0  0  0  0
    2.2466    2.0316    1.3297 O   0  0  0  0  0  0  0  0  0  0  0  0
    0.3739    3.8848    0.4342 O   0  0  0  0  0  0  0  0  0  0  0  0
    4.1969    1.4063    0.9744 H   0  0  0  0  0  0  0  0  0  0  0  0
    3.7900   -0.6837    1.7507 H   0  0  0  0  0  0  0  0  0  0  0  0
    1.5265   -1.2871    2.6323 H   0  0  0  0  0  0  0  0  0  0  0  0
   -0.1881    0.5787    2.4424 H   0  0  0  0  0  0  0  0  0  0  0  0
    1.0851    1.4403   -0.1865 H   0  0  0  0  0  0  0  0  0  0  0  0
   -0.0448    2.9402    2.2330 H   0  0  0  0  0  0  0  0  0  0  0  0
   -0.9823    2.4017    0.8084 H   0  0  0  0  0  0  0  0  0  0  0  0
    3.0385    0.8757    3.2768 H   0  0  0  0  0  0  0  0  0  0  0  0
   -2.3273   -0.3790   -0.0337 C   0  0  2  0  0  0  0  0  0  0  0  0
   -2.4684   -1.2379   -1.2409 C   0  0  2  0  0  0  0  0  0  0  0  0
   -2.7031   -2.6314   -0.7782 C   0  0  1  0  0  0  0  0  0  0  0  0
   -1.7862   -3.1025    0.2945 C   0  0  1  0  0  0  0  0  0  0  0  0
   -0.5966   -3.8240   -0.3341 C   0  0  2  0  0  0  0  0  0  0  0  0
   -1.3176   -0.8919    0.9283 C   0  0  1  0  0  0  0  0  0  0  0  0
   -3.5707   -0.4144    0.6335 O   0  0  0  0  0  0  0  0  0  0  0  0
   -1.4537   -1.0939   -2.1740 O   0  0  0  0  0  0  0  0  0  0  0  0
   -4.0328   -2.7135   -0.3503 O   0  0  0  0  0  0  0  0  0  0  0  0
   -1.3142   -2.2061    1.1727 O   0  0  0  0  0  0  0  0  0  0  0  0
    0.2513   -2.9466   -0.9977 O   0  0  0  0  0  0  0  0  0  0  0  0
   -2.1365    0.6405   -0.3454 H   0  0  0  0  0  0  0  0  0  0  0  0
   -3.4070   -0.8943   -1.7659 H   0  0  0  0  0  0  0  0  0  0  0  0
   -2.6370   -3.2802   -1.6882 H   0  0  0  0  0  0  0  0  0  0  0  0
   -2.3191   -3.9028    0.8558 H   0  0  0  0  0  0  0  0  0  0  0  0
   -0.9331   -4.5942   -1.0493 H   0  0  0  0  0  0  0  0  0  0  0  0
    0.0012   -4.2599    0.4980 H   0  0  0  0  0  0  0  0  0  0  0  0
   -1.5570   -0.3674    1.9023 H   0  0  0  0  0  0  0  0  0  0  0  0
   -3.5984   -1.0950    1.3377 H   0  0  0  0  0  0  0  0  0  0  0  0
   -0.8577   -0.3482   -1.9232 H   0  0  0  0  0  0  0  0  0  0  0  0
   -4.6738   -2.3891   -1.0085 H   0  0  0  0  0  0  0  0  0  0  0  0
    3.7297    0.5864   -1.0184 H   0  0  0  0  0  0  0  0  0  0  0  0
    2.1743   -0.6704   -0.5443 H   0  0  0  0  0  0  0  0  0  0  0  0
    0.1789    4.7281    0.9223 H   0  0  0  0  0  0  0  0  0  0  0  0
    0.3803   -3.1472   -1.9462 H   0  0  0  0  0  0  0  0  0  0  0  0
  1  2  1  0
  1  7  1  0
  1 11  1  0
  1 13  1  6
  2  3  1  0
  2  8  1  0
  2 14  1  1
  3  4  1  0
  3  9  1  0
  3 15  1  1
  4  5  1  0
  4 10  1  0
  4 16  1  1
  5  6  1  0
  5 11  1  0
  5 17  1  6
  6 12  1  0
  6 18  1  1
  6 19  1  0
  9 20  1  0
 10 26  1  0
 21 22  1  0
 21 26  1  0
 21 27  1  0
 21 32  1  6
 22 23  1  0
 22 28  1  0
 22 33  1  6
 23 24  1  0
 23 29  1  0
 23 34  1  6
 24 25  1  0
 24 30  1  0
 24 35  1  1
 25 31  1  0
 25 36  1  6
 25 37  1  0
 26 30  1  0
 26 38  1  1
 27 39  1  0
 28 40  1  0
 29 41  1  0
  7 42  1  0
  8 43  1  0
 12 44  1  0
 31 45  1  0
M  END
$$$$
GLUCANASE
     RDKit          3D

 45 46  0  0  0  0  0  0  0  0999 V2000
   -0.3431   -3.0061    1.7870 C   0  0  1  0  0  0  0  0  0  0  0  0
   -0.3143   -3.0700    0.2850 C   0  0  1  0  0  0  0  0  0  0  0  0
    0.0177   -1.7587   -0.3808 C   0  0  2  0  0  0  0  0  0  0  0  0
   -0.6039   -0.5784    0.3425 C   0  0  1  0  0  0  0  0  0  0  0  0
   -0.5749   -0.7920    1.8147 C   0  0  1  0  0  0  0  0  0  0  0  0
   -1.1190    0.3388    2.6123 C   0  0  2  0  0  0  0  0  0  0  0  0
    0.9505   -2.7914    2.2125 O   0  0  0  0  0  0  0  0  0  0  0  0
    0.6903   -3.9712   -0.0711 O   0  0  0  0  0  0  0  0  0  0  0  0
   -0.5163   -1.7796   -1.6682 O   0  0  0  0  0  0  0  0  0  0  0  0
    0.1736    0.5303    0.0226 O   0  0  0  0  0  0  0  0  0  0  0  0
   -1.2257   -1.9835    2.1808 O   0  0  0  0  0  0  0  0  0  0  0  0
   -0.8938    0.0329    3.9735 O   0  0  0  0  0  0  0  0  0  0  0  0
   -0.7196   -3.9939    2.1316 H   0  0  0  0  0  0  0  0  0  0  0  0
   -1.2718   -3.5046   -0.1261 H   0  0  0  0  0  0  0  0  0  0  0  0
    1.1144   -1.6152   -0.4681 H   0  0  0  0  0  0  0  0  0  0  0  0
   -1.6309   -0.4148   -0.0723 H   0  0  0  0  0  0  0  0  0  0  0  0
    0.4855   -0.9267    2.1085 H   0  0  0  0  0  0  0  0  0  0  0  0
   -2.1549    0.6266    2.4050 H   0  0  0  0  0  0  0  0  0  0  0  0
   -0.4818    1.2541    2.4511 H   0  0  0  0  0  0  0  0  0  0  0  0
   -0.0387   -1.1710   -2.2846 H   0  0  0  0  0  0  0  0  0  0  0  0
   -0.6264    2.8212   -0.0769 C   0  0  2  0  0  0  0  0  0  0  0  0
    0.7634    3.3574    0.1464 C   0  0  2  0  0  0  0  0  0  0  0  0
    1.7259    2.8231   -0.8839 C   0  0  1  0  0  0  0  0  0  0  0  0
    1.0977    2.3611   -2.1505 C   0  0  1  0  0  0  0  0  0  0  0  0
    2.1409    1.5047   -2.8810 C   0  0  2  0  0  0  0  0  0  0  0  0
   -0.5009    1.4668   -0.7213 C   0  0  1  0  0  0  0  0  0  0  0  0
   -1.1897    3.6697   -1.0663 O   0  0  0  0  0  0  0  0  0  0  0  0
    1.2790    3.0625    1.3891 O   0  0  0  0  0  0  0  0  0  0  0  0
    2.6949    3.7672   -1.1767 O   0  0  0  0  0  0  0  0  0  0  0  0
   -0.0080    1.5672   -2.0252 O   0  0  0  0  0  0  0  0  0  0  0  0
    3.3241    2.1778   -3.0824 O   0  0  0  0  0  0  0  0  0  0  0  0
   -1.2594    2.7740    0.8073 H   0  0  0  0  0  0  0  0  0  0  0  0
    0.6827    4.4816    0.1132 H   0  0  0  0  0  0  0  0  0  0  0  0
    2.2614    1.9376   -0.4443 H   0  0  0  0  0  0  0  0  0  0  0  0
    0.9344    3.2296   -2.8302 H   0  0  0  0  0  0  0  0  0  0  0  0
    1.6766    1.2698   -3.8724 H   0  0  0  0  0  0  0  0  0  0  0  0
    2.2441    0.5461   -2.3339 H   0  0  0  0  0  0  0  0  0  0  0  0
   -1.5532    1.0811   -0.8659 H   0  0  0  0  0  0  0  0  0  0  0  0
   -0.9644    4.6079   -0.8085 H   0  0  0  0  0  0  0  0  0  0  0  0
    1.8383    2.2397    1.4043 H   0  0  0  0  0  0  0  0  0  0  0  0
    3.5703    3.5477   -0.7513 H   0  0  0  0  0  0  0  0  0  0  0  0
    1.1522   -3.0330    3.1307 H   0  0  0  0  0  0  0  0  0  0  0  0
    0.5608   -4.8137    0.4249 H   0  0  0  0  0  0  0  0  0  0  0  0
   -0.0174   -0.3985    4.0173 H   0  0  0  0  0  0  0  0  0  0  0  0
    3.7203    1.9465   -3.9610 H   0  0  0  0  0  0  0  0  0  0  0  0
  1  2  1  0
  1  7  1  0
  1 11  1  0
  1 13  1  1
  2  3  1  0
  2  8  1  0
  2 14  1  6
  3  4  1  0
  3  9  1  0
  3 15  1  6
  4  5  1  0
  4 10  1  0
  4 16  1  6
  5  6  1  0
  5 11  1  0
  5 17  1  1
  6 12  1  0
  6 18  1  1
  6 19  1  0
  9 20  1  0
 10 26  1  0
 21 22  1  0
 21 26  1  0
 21 27  1  0
 21 32  1  1
 22 23  1  0
 22 28  1  0
 22 33  1  1
 23 24  1  0
 23 29  1  0
 23 34  1  1
 24 25  1  0
 24 30  1  0
 24 35  1  6
 25 31  1  0
 25 36  1  6
 25 37  1  0
 26 30  1  0
 26 38  1  6
 27 39  1  0
 28 40  1  0
 29 41  1  0
  7 42  1  0
  8 43  1  0
 12 44  1  0
 31 45  1  0
M  END
$$$$
GLUCANASE
     RDKit          3D

 45 46  0  0  0  0  0  0  0  0999 V2000
    3.2910   -1.2267    0.6421 C   0  0  1  0  0  0  0  0  0  0  0  0
    2.0122   -0.8881    1.3330 C   0  0  1  0  0  0  0  0  0  0  0  0
    2.0528    0.5979    1.6695 C   0  0  2  0  0  0  0  0  0  0  0  0
    1.9998    1.2979    0.3265 C   0  0  1  0  0  0  0  0  0  0  0  0
    3.0541    0.7298   -0.5878 C   0  0  1  0  0  0  0  0  0  0  0  0
    3.9820    1.8744   -1.0251 C   0  0  2  0  0  0  0  0  0  0  0  0
    3.1248   -2.3015   -0.2592 O   0  0  0  0  0  0  0  0  0  0  0  0
    0.9199   -1.1430    0.5101 O   0  0  0  0  0  0  0  0  0  0  0  0
    3.1486    0.9098    2.4289 O   0  0  0  0  0  0  0  0  0  0  0  0
    0.6887    1.0674   -0.1489 O   0  0  0  0  0  0  0  0  0  0  0  0
    3.8910   -0.1745   -0.0028 O   0  0  0  0  0  0  0  0  0  0  0  0
    4.8937    1.2901   -1.9151 O   0  0  0  0  0  0  0  0  0  0  0  0
    4.0060   -1.5988    1.4083 H   0  0  0  0  0  0  0  0  0  0  0  0
    1.8806   -1.5043    2.2480 H   0  0  0  0  0  0  0  0  0  0  0  0
    1.1471    0.8096    2.2716 H   0  0  0  0  0  0  0  0  0  0  0  0
    2.1396    2.3804    0.5154 H   0  0  0  0  0  0  0  0  0  0  0  0
    2.5590    0.3827   -1.5167 H   0  0  0  0  0  0  0  0  0  0  0  0
    4.5109    2.1962   -0.1167 H   0  0  0  0  0  0  0  0  0  0  0  0
    3.4630    2.6695   -1.5606 H   0  0  0  0  0  0  0  0  0  0  0  0
    3.9775    1.1004    1.9634 H   0  0  0  0  0  0  0  0  0  0  0  0
   -0.3060    2.5486   -1.6969 C   0  0  2  0  0  0  0  0  0  0  0  0
   -1.7364    2.1924   -2.0179 C   0  0  2  0  0  0  0  0  0  0  0  0
   -2.0863    0.9951   -1.1240 C   0  0  1  0  0  0  0  0  0  0  0  0
   -2.1933    1.5354    0.2647 C   0  0  1  0  0  0  0  0  0  0  0  0
   -2.4439    0.4477    1.2913 C   0  0  2  0  0  0  0  0  0  0  0  0
   -0.0305    2.2459   -0.2393 C   0  0  1  0  0  0  0  0  0  0  0  0
   -0.0825    3.8937   -1.9876 O   0  0  0  0  0  0  0  0  0  0  0  0
   -1.9540    1.8821   -3.3467 O   0  0  0  0  0  0  0  0  0  0  0  0
   -3.2644    0.3996   -1.5645 O   0  0  0  0  0  0  0  0  0  0  0  0
   -1.1268    2.3327    0.5773 O   0  0  0  0  0  0  0  0  0  0  0  0
   -3.5485   -0.3372    0.9168 O   0  0  0  0  0  0  0  0  0  0  0  0
    0.3328    1.8916   -2.3494 H   0  0  0  0  0  0  0  0  0  0  0  0
   -2.3698    3.0478   -1.6750 H   0  0  0  0  0  0  0  0  0  0  0  0
   -1.2337    0.2870   -1.2296 H   0  0  0  0  0  0  0  0  0  0  0  0
   -3.1119    2.1858    0.2830 H   0  0  0  0  0  0  0  0  0  0  0  0
   -2.6144    0.9021    2.2882 H   0  0  0  0  0  0  0  0  0  0  0  0
   -1.5131   -0.1503    1.3671 H   0  0  0  0  0  0  0  0  0  0  0  0
    0.6607    3.0671    0.1028 H   0  0  0  0  0  0  0  0  0  0  0  0
    0.5545    4.0107   -2.7501 H   0  0  0  0  0  0  0  0  0  0  0  0
   -2.7925    1.3633   -3.3921 H   0  0  0  0  0  0  0  0  0  0  0  0
   -3.0238   -0.3543   -2.1286 H   0  0  0  0  0  0  0  0  0  0  0  0
    2.6054   -3.0124    0.2028 H   0  0  0  0  0  0  0  0  0  0  0  0
    1.1813   -1.5146   -0.3732 H   0  0  0  0  0  0  0  0  0  0  0  0
    4.9808    1.8299   -2.7426 H   0  0  0  0  0  0  0  0  0  0  0  0
   -3.3202   -1.2838    1.1007 H   0  0  0  0  0  0  0  0  0  0  0  0
  1  2  1  0
  1  7  1  0
  1 11  1  0
  1 13  1  1
  2  3  1  0
  2  8  1  0
  2 14  1  1
  3  4  1  0
  3  9  1  0
  3 15  1  1
  4  5  1  0
  4 10  1  0
  4 16  1  1
  5  6  1  0
  5 11  1  0
  5 17  1  6
  6 12  1  0
  6 18  1  1
  6 19  1  0
  9 20  1  0
 10 26  1  0
 21 22  1  0
 21 26  1  0
 21 27  1  0
 21 32  1  6
 22 23  1  0
 22 28  1  0
 22 33  1  1
 23 24  1  0
 23 29  1  0
 23 34  1  1
 24 25  1  0
 24 30  1  0
 24 35  1  6
 25 31  1  0
 25 36  1  1
 25 37  1  0
 26 30  1  0
 26 38  1  1
 27 39  1  0
 28 40  1  0
 29 41  1  0
  7 42  1  0
  8 43  1  0
 12 44  1  0
 31 45  1  0
M  END
$$$$
GLUCANASE
     RDKit          3D

 45 46  0  0  0  0  0  0  0  0999 V2000
    3.2141   -1.9125    1.8372 C   0  0  1  0  0  0  0  0  0  0  0  0
    3.5466   -0.4863    1.4983 C   0  0  1  0  0  0  0  0  0  0  0  0
    2.2820    0.3074    1.1394 C   0  0  2  0  0  0  0  0  0  0  0  0
    1.7077   -0.3941   -0.0666 C   0  0  1  0  0  0  0  0  0  0  0  0
    1.6772   -1.8993    0.1611 C   0  0  1  0  0  0  0  0  0  0  0  0
    2.6371   -2.6210   -0.7622 C   0  0  2  0  0  0  0  0  0  0  0  0
    3.2681   -2.1053    3.2375 O   0  0  0  0  0  0  0  0  0  0  0  0
    4.0743    0.1255    2.6503 O   0  0  0  0  0  0  0  0  0  0  0  0
    2.7017    1.5744    0.7805 O   0  0  0  0  0  0  0  0  0  0  0  0
    0.5047    0.0854   -0.5048 O   0  0  0  0  0  0  0  0  0  0  0  0
    1.9121   -2.2379    1.4761 O   0  0  0  0  0  0  0  0  0  0  0  0
    2.4549   -3.9828   -0.5971 O   0  0  0  0  0  0  0  0  0  0  0  0
    3.9342   -2.6548    1.4297 H   0  0  0  0  0  0  0  0  0  0  0  0
    4.3262   -0.3752    0.7185 H   0  0  0  0  0  0  0  0  0  0  0  0
    1.6353    0.2691    2.0262 H   0  0  0  0  0  0  0  0  0  0  0  0
    2.4367   -0.2152   -0.8846 H   0  0  0  0  0  0  0  0  0  0  0  0
    0.6537   -2.3054   -0.0932 H   0  0  0  0  0  0  0  0  0  0  0  0
    3.6781   -2.3000   -0.5578 H   0  0  0  0  0  0  0  0  0  0  0  0
    2.4325   -2.2906   -1.8072 H   0  0  0  0  0  0  0  0  0  0  0  0
    3.4627    1.4728    0.1555 H   0  0  0  0  0  0  0  0  0  0  0  0
   -0.3107   -0.2102   -2.6664 C   0  0  2  0  0  0  0  0  0  0  0  0
   -1.7561    0.0248   -2.3082 C   0  0  2  0  0  0  0  0  0  0  0  0
   -1.9879    1.4981   -2.5776 C   0  0  1  0  0  0  0  0  0  0  0  0
   -0.9998    2.4005   -1.9170 C   0  0  1  0  0  0  0  0  0  0  0  0
   -1.6132    2.7730   -0.5592 C   0  0  2  0  0  0  0  0  0  0  0  0
    0.5440    0.6311   -1.7859 C   0  0  1  0  0  0  0  0  0  0  0  0
   -0.1345    0.1496   -3.9883 O   0  0  0  0  0  0  0  0  0  0  0  0
   -2.0411   -0.2405   -0.9758 O   0  0  0  0  0  0  0  0  0  0  0  0
   -1.9632    1.6569   -3.9674 O   0  0  0  0  0  0  0  0  0  0  0  0
    0.2270    1.9407   -1.6887 O   0  0  0  0  0  0  0  0  0  0  0  0
   -0.8660    3.7505    0.0895 O   0  0  0  0  0  0  0  0  0  0  0  0
   -0.0318   -1.2766   -2.4711 H   0  0  0  0  0  0  0  0  0  0  0  0
   -2.3997   -0.5254   -3.0164 H   0  0  0  0  0  0  0  0  0  0  0  0
   -3.0446    1.7135   -2.2642 H   0  0  0  0  0  0  0  0  0  0  0  0
   -0.9656    3.3559   -2.4918 H   0  0  0  0  0  0  0  0  0  0  0  0
   -1.5669    1.8359    0.0558 H   0  0  0  0  0  0  0  0  0  0  0  0
   -2.6667    3.0688   -0.6985 H   0  0  0  0  0  0  0  0  0  0  0  0
    1.5936    0.5289   -2.1329 H   0  0  0  0  0  0  0  0  0  0  0  0
    0.4379    0.9400   -4.1165 H   0  0  0  0  0  0  0  0  0  0  0  0
   -2.2710   -1.1988   -0.8579 H   0  0  0  0  0  0  0  0  0  0  0  0
   -1.8969    2.6210   -4.1673 H   0  0  0  0  0  0  0  0  0  0  0  0
    4.2255   -2.1229    3.5449 H   0  0  0  0  0  0  0  0  0  0  0  0
    4.1022    1.0968    2.4553 H   0  0  0  0  0  0  0  0  0  0  0  0
    2.2242   -4.1353    0.3599 H   0  0  0  0  0  0  0  0  0  0  0  0
   -0.0972    3.2913    0.5133 H   0  0  0  0  0  0  0  0  0  0  0  0
  1  2  1  0
  1  7  1  0
  1 11  1  0
  1 13  1  6
  2  3  1  0
  2  8  1  0
  2 14  1  6
  3  4  1  0
  3  9  1  0
  3 15  1  1
  4  5  1  0
  4 10  1  0
  4 16  1  6
  5  6  1  0
  5 11  1  0
  5 17  1  6
  6 12  1  0
  6 18  1  1
  6 19  1  0
  9 20  1  0
 10 26  1  0
 21 22  1  0
 21 26  1  0
 21 27  1  0
 21 32  1  6
 22 23  1  0
 22 28  1  0
 22 33  1  6
 23 24  1  0
 23 29  1  0
 23 34  1  1
 24 25  1  0
 24 30  1  0
 24 35  1  6
 25 31  1  0
 25 36  1  1
 25 37  1  0
 26 30  1  0
 26 38  1  6
 27 39  1  0
 28 40  1  0
 29 41  1  0
  7 42  1  0
  8 43  1  0
 12 44  1  0
 31 45  1  0
M  END
$$$$
GLUCANASE
     RDKit          3D

 45 46  0  0  0  0  0  0  0  0999 V2000
   -1.0185   -2.6091   -2.1594 C   0  0  1  0  0  0  0  0  0  0  0  0
   -2.1838   -2.5253   -1.2173 C   0  0  1  0  0  0  0  0  0  0  0  0
   -2.2520   -1.2548   -0.4117 C   0  0  2  0  0  0  0  0  0  0  0  0
   -1.2604   -0.2454   -1.0431 C   0  0  1  0  0  0  0  0  0  0  0  0
   -1.5133   -0.3780   -2.5113 C   0  0  1  0  0  0  0  0  0  0  0  0
   -1.1313    0.8123   -3.3240 C   0  0  2  0  0  0  0  0  0  0  0  0
   -1.2658   -3.6871   -3.0105 O   0  0  0  0  0  0  0  0  0  0  0  0
   -3.3648   -2.7724   -1.9320 O   0  0  0  0  0  0  0  0  0  0  0  0
   -1.9331   -1.3970    0.9176 O   0  0  0  0  0  0  0  0  0  0  0  0
   -1.4883    0.9841   -0.4900 O   0  0  0  0  0  0  0  0  0  0  0  0
   -0.8116   -1.4964   -2.9499 O   0  0  0  0  0  0  0  0  0  0  0  0
   -1.8647    1.9038   -2.8518 O   0  0  0  0  0  0  0  0  0  0  0  0
   -0.1028   -2.8649   -1.5857 H   0  0  0  0  0  0  0  0  0  0  0  0
   -2.0754   -3.3630   -0.4971 H   0  0  0  0  0  0  0  0  0  0  0  0
   -3.2733   -0.8318   -0.4961 H   0  0  0  0  0  0  0  0  0  0  0  0
   -0.2666   -0.6863   -0.7601 H   0  0  0  0  0  0  0  0  0  0  0  0
   -2.5970   -0.6278   -2.7257 H   0  0  0  0  0  0  0  0  0  0  0  0
   -1.3765    0.6908   -4.4069 H   0  0  0  0  0  0  0  0  0  0  0  0
   -0.0455    1.0278   -3.3057 H   0  0  0  0  0  0  0  0  0  0  0  0
   -2.7253   -1.3824    1.5102 H   0  0  0  0  0  0  0  0  0  0  0  0
    0.1087    2.7588   -0.0148 C   0  0  2  0  0  0  0  0  0  0  0  0
    1.1587    3.1715    0.9561 C   0  0  2  0  0  0  0  0  0  0  0  0
    1.1712    2.4978    2.2729 C   0  0  1  0  0  0  0  0  0  0  0  0
    0.1083    1.4736    2.5122 C   0  0  1  0  0  0  0  0  0  0  0  0
   -0.4096    1.4807    3.9348 C   0  0  2  0  0  0  0  0  0  0  0  0
   -0.4683    1.4190    0.3545 C   0  0  1  0  0  0  0  0  0  0  0  0
    0.6540    2.7554   -1.3102 O   0  0  0  0  0  0  0  0  0  0  0  0
    0.9953    4.5548    1.2077 O   0  0  0  0  0  0  0  0  0  0  0  0
    2.4211    1.8524    2.4248 O   0  0  0  0  0  0  0  0  0  0  0  0
   -0.9722    1.5823    1.6692 O   0  0  0  0  0  0  0  0  0  0  0  0
   -1.2660    0.3651    4.0132 O   0  0  0  0  0  0  0  0  0  0  0  0
   -0.7387    3.5002    0.0227 H   0  0  0  0  0  0  0  0  0  0  0  0
    2.1716    3.1254    0.4521 H   0  0  0  0  0  0  0  0  0  0  0  0
    1.1296    3.2138    3.1446 H   0  0  0  0  0  0  0  0  0  0  0  0
    0.5301    0.4423    2.3648 H   0  0  0  0  0  0  0  0  0  0  0  0
   -1.0510    2.3709    4.0658 H   0  0  0  0  0  0  0  0  0  0  0  0
    0.3916    1.4489    4.6784 H   0  0  0  0  0  0  0  0  0  0  0  0
    0.3683    0.6954    0.4307 H   0  0  0  0  0  0  0  0  0  0  0  0
    0.8520    3.7190   -1.5167 H   0  0  0  0  0  0  0  0  0  0  0  0
    1.0747    5.0775    0.3708 H   0  0  0  0  0  0  0  0  0  0  0  0
    2.9636    1.8874    1.6028 H   0  0  0  0  0  0  0  0  0  0  0  0
   -2.0687   -4.2006   -2.7651 H   0  0  0  0  0  0  0  0  0  0  0  0
   -4.0882   -2.8696   -1.2392 H   0  0  0  0  0  0  0  0  0  0  0  0
   -1.4181    2.7093   -3.2384 H   0  0  0  0  0  0  0  0  0  0  0  0
   -0.8768   -0.4318    3.5833 H   0  0  0  0  0  0  0  0  0  0  0  0
  1  2  1  0
  1  7  1  0
  1 11  1  0
  1 13  1  1
  2  3  1  0
  2  8  1  0
  2 14  1  1
  3  4  1  0
  3  9  1  0
  3 15  1  1
  4  5  1  0
  4 10  1  0
  4 16  1  6
  5  6  1  0
  5 11  1  0
  5 17  1  1
  6 12  1  0
  6 18  1  6
  6 19  1  0
  9 20  1  0
 10 26  1  0
 21 22  1  0
 21 26  1  0
 21 27  1  0
 21 32  1  6
 22 23  1  0
 22 28  1  0
 22 33  1  6
 23 24  1  0
 23 29  1  0
 23 34  1  1
 24 25  1  0
 24 30  1  0
 24 35  1  6
 25 31  1  0
 25 36  1  1
 25 37  1  0
 26 30  1  0
 26 38  1  1
 27 39  1  0
 28 40  1  0
 29 41  1  0
  7 42  1  0
  8 43  1  0
 12 44  1  0
 31 45  1  0
M  END
$$$$
GLUCANASE
     RDKit          3D

 45 46  0  0  0  0  0  0  0  0999 V2000
    2.4750    1.0442    2.4041 C   0  0  1  0  0  0  0  0  0  0  0  0
    1.7921   -0.1964    2.9139 C   0  0  1  0  0  0  0  0  0  0  0  0
    0.5314   -0.4169    2.1557 C   0  0  2  0  0  0  0  0  0  0  0  0
    0.2533    0.6739    1.1545 C   0  0  1  0  0  0  0  0  0  0  0  0
    1.4473    1.1459    0.4031 C   0  0  1  0  0  0  0  0  0  0  0  0
    1.3934    2.6482    0.2077 C   0  0  2  0  0  0  0  0  0  0  0  0
    3.7362    1.2161    3.0134 O   0  0  0  0  0  0  0  0  0  0  0  0
    2.6944   -1.2641    2.7174 O   0  0  0  0  0  0  0  0  0  0  0  0
   -0.5377   -0.4168    3.0551 O   0  0  0  0  0  0  0  0  0  0  0  0
   -0.7636    0.3543    0.2805 O   0  0  0  0  0  0  0  0  0  0  0  0
    2.6516    0.8873    1.0376 O   0  0  0  0  0  0  0  0  0  0  0  0
    2.4589    3.0942   -0.5719 O   0  0  0  0  0  0  0  0  0  0  0  0
    1.9126    1.9641    2.6834 H   0  0  0  0  0  0  0  0  0  0  0  0
    1.6076   -0.1330    4.0186 H   0  0  0  0  0  0  0  0  0  0  0  0
    0.5619   -1.4261    1.7090 H   0  0  0  0  0  0  0  0  0  0  0  0
   -0.1216    1.5242    1.7682 H   0  0  0  0  0  0  0  0  0  0  0  0
    1.4425    0.7143   -0.6229 H   0  0  0  0  0  0  0  0  0  0  0  0
    1.4425    3.2193    1.1482 H   0  0  0  0  0  0  0  0  0  0  0  0
    0.4765    2.9174   -0.3454 H   0  0  0  0  0  0  0  0  0  0  0  0
   -0.2032   -0.5010    3.9872 H   0  0  0  0  0  0  0  0  0  0  0  0
   -2.2482    1.5623   -1.0478 C   0  0  2  0  0  0  0  0  0  0  0  0
   -2.0028    0.3767   -1.9712 C   0  0  2  0  0  0  0  0  0  0  0  0
   -2.2043   -0.9370   -1.2692 C   0  0  1  0  0  0  0  0  0  0  0  0
   -3.0717   -0.8870   -0.0647 C   0  0  1  0  0  0  0  0  0  0  0  0
   -2.7313   -2.0782    0.8378 C   0  0  2  0  0  0  0  0  0  0  0  0
   -1.9082    1.0805    0.3485 C   0  0  1  0  0  0  0  0  0  0  0  0
   -3.5723    1.9864   -1.1343 O   0  0  0  0  0  0  0  0  0  0  0  0
   -0.6666    0.4410   -2.3642 O   0  0  0  0  0  0  0  0  0  0  0  0
   -2.8630   -1.7760   -2.1998 O   0  0  0  0  0  0  0  0  0  0  0  0
   -2.9514    0.2300    0.7089 O   0  0  0  0  0  0  0  0  0  0  0  0
   -3.6182   -2.1177    1.9104 O   0  0  0  0  0  0  0  0  0  0  0  0
   -1.6077    2.3842   -1.4037 H   0  0  0  0  0  0  0  0  0  0  0  0
   -2.6572    0.4836   -2.8665 H   0  0  0  0  0  0  0  0  0  0  0  0
   -1.2289   -1.4791   -1.0926 H   0  0  0  0  0  0  0  0  0  0  0  0
   -4.1457   -1.0375   -0.3555 H   0  0  0  0  0  0  0  0  0  0  0  0
   -1.6898   -2.0453    1.1557 H   0  0  0  0  0  0  0  0  0  0  0  0
   -2.8519   -3.0123    0.2338 H   0  0  0  0  0  0  0  0  0  0  0  0
   -1.9351    1.8854    1.1090 H   0  0  0  0  0  0  0  0  0  0  0  0
   -4.1227    1.3481   -0.6155 H   0  0  0  0  0  0  0  0  0  0  0  0
   -0.4719    1.2679   -2.8736 H   0  0  0  0  0  0  0  0  0  0  0  0
   -2.5079   -1.6388   -3.1142 H   0  0  0  0  0  0  0  0  0  0  0  0
    3.9997    0.2832    3.2666 H   0  0  0  0  0  0  0  0  0  0  0  0
    2.5586   -1.9167    3.4587 H   0  0  0  0  0  0  0  0  0  0  0  0
    2.9518    2.3324   -0.9893 H   0  0  0  0  0  0  0  0  0  0  0  0
   -3.7501   -3.0441    2.2549 H   0  0  0  0  0  0  0  0  0  0  0  0
  1  2  1  0
  1  7  1  0
  1 11  1  0
  1 13  1  6
  2  3  1  0
  2  8  1  0
  2 14  1  1
  3  4  1  0
  3  9  1  0
  3 15  1  6
  4  5  1  0
  4 10  1  0
  4 16  1  1
  5  6  1  0
  5 11  1  0
  5 17  1  6
  6 12  1  0
  6 18  1  1
  6 19  1  0
  9 20  1  0
 10 26  1  0
 21 22  1  0
 21 26  1  0
 21 27  1  0
 21 32  1  6
 22 23  1  0
 22 28  1  0
 22 33  1  6
 23 24  1  0
 23 29  1  0
 23 34  1  1
 24 25  1  0
 24 30  1  0
 24 35  1  6
 25 31  1  0
 25 36  1  1
 25 37  1  0
 26 30  1  0
 26 38  1  1
 27 39  1  0
 28 40  1  0
 29 41  1  0
  7 42  1  0
  8 43  1  0
 12 44  1  0
 31 45  1  0
M  END
$$$$
GLUCANASE
     RDKit          3D

 45 46  0  0  0  0  0  0  0  0999 V2000
    2.1528    2.9825   -0.3395 C   0  0  1  0  0  0  0  0  0  0  0  0
    1.8093    2.4849   -1.7515 C   0  0  1  0  0  0  0  0  0  0  0  0
    0.4513    1.8388   -1.5603 C   0  0  2  0  0  0  0  0  0  0  0  0
    0.7168    0.6192   -0.6907 C   0  0  1  0  0  0  0  0  0  0  0  0
    1.5521    0.8801    0.5100 C   0  0  1  0  0  0  0  0  0  0  0  0
    2.4385   -0.3614    0.7168 C   0  0  2  0  0  0  0  0  0  0  0  0
    1.0743    3.7826    0.0319 O   0  0  0  0  0  0  0  0  0  0  0  0
    1.7768    3.5121   -2.6781 O   0  0  0  0  0  0  0  0  0  0  0  0
   -0.0229    1.3306   -2.7758 O   0  0  0  0  0  0  0  0  0  0  0  0
   -0.4259   -0.1014   -0.4415 O   0  0  0  0  0  0  0  0  0  0  0  0
    2.4109    1.9275    0.4679 O   0  0  0  0  0  0  0  0  0  0  0  0
    3.3367   -0.4884   -0.3421 O   0  0  0  0  0  0  0  0  0  0  0  0
    3.0598    3.5847   -0.4541 H   0  0  0  0  0  0  0  0  0  0  0  0
    2.5711    1.7111   -1.9936 H   0  0  0  0  0  0  0  0  0  0  0  0
   -0.2043    2.5831   -1.1057 H   0  0  0  0  0  0  0  0  0  0  0  0
    1.3282   -0.0206   -1.3659 H   0  0  0  0  0  0  0  0  0  0  0  0
    0.9755    0.9521    1.4561 H   0  0  0  0  0  0  0  0  0  0  0  0
    1.8603   -1.2922    0.7728 H   0  0  0  0  0  0  0  0  0  0  0  0
    3.0404   -0.2500    1.6414 H   0  0  0  0  0  0  0  0  0  0  0  0
    0.7650    1.2738   -3.3958 H   0  0  0  0  0  0  0  0  0  0  0  0
   -0.6741   -2.3980    0.0017 C   0  0  2  0  0  0  0  0  0  0  0  0
   -1.9902   -3.0913    0.1435 C   0  0  2  0  0  0  0  0  0  0  0  0
   -2.8536   -3.0447   -1.0808 C   0  0  1  0  0  0  0  0  0  0  0  0
   -1.9456   -2.6725   -2.2389 C   0  0  1  0  0  0  0  0  0  0  0  0
   -2.8027   -2.7390   -3.4896 C   0  0  2  0  0  0  0  0  0  0  0  0
   -0.5750   -1.3221   -1.0211 C   0  0  1  0  0  0  0  0  0  0  0  0
    0.3313   -3.3810   -0.1674 O   0  0  0  0  0  0  0  0  0  0  0  0
   -2.7434   -2.6177    1.2200 O   0  0  0  0  0  0  0  0  0  0  0  0
   -3.4902   -4.2361   -1.3665 O   0  0  0  0  0  0  0  0  0  0  0  0
   -1.5761   -1.3733   -1.9871 O   0  0  0  0  0  0  0  0  0  0  0  0
   -3.9388   -1.9624   -3.2930 O   0  0  0  0  0  0  0  0  0  0  0  0
   -0.4354   -1.9942    1.0313 H   0  0  0  0  0  0  0  0  0  0  0  0
   -1.8329   -4.1794    0.3534 H   0  0  0  0  0  0  0  0  0  0  0  0
   -3.6204   -2.2459   -0.9520 H   0  0  0  0  0  0  0  0  0  0  0  0
   -1.1125   -3.3765   -2.2594 H   0  0  0  0  0  0  0  0  0  0  0  0
   -3.0521   -3.7780   -3.7144 H   0  0  0  0  0  0  0  0  0  0  0  0
   -2.2093   -2.2950   -4.3221 H   0  0  0  0  0  0  0  0  0  0  0  0
    0.3569   -1.4878   -1.6106 H   0  0  0  0  0  0  0  0  0  0  0  0
    0.9213   -3.1827   -0.9372 H   0  0  0  0  0  0  0  0  0  0  0  0
   -2.2363   -2.5648    2.0674 H   0  0  0  0  0  0  0  0  0  0  0  0
   -4.4444   -4.2572   -1.1072 H   0  0  0  0  0  0  0  0  0  0  0  0
    0.9070    4.3905   -0.7338 H   0  0  0  0  0  0  0  0  0  0  0  0
    2.6931    3.8841   -2.7183 H   0  0  0  0  0  0  0  0  0  0  0  0
    4.1795   -0.0272   -0.1078 H   0  0  0  0  0  0  0  0  0  0  0  0
   -4.5959   -2.4482   -2.7328 H   0  0  0  0  0  0  0  0  0  0  0  0
  1  2  1  0
  1  7  1  0
  1 11  1  0
  1 13  1  6
  2  3  1  0
  2  8  1  0
  2 14  1  6
  3  4  1  0
  3  9  1  0
  3 15  1  1
  4  5  1  0
  4 10  1  0
  4 16  1  6
  5  6  1  0
  5 11  1  0
  5 17  1  1
  6 12  1  0
  6 18  1  1
  6 19  1  0
  9 20  1  0
 10 26  1  0
 21 22  1  0
 21 26  1  0
 21 27  1  0
 21 32  1  1
 22 23  1  0
 22 28  1  0
 22 33  1  1
 23 24  1  0
 23 29  1  0
 23 34  1  1
 24 25  1  0
 24 30  1  0
 24 35  1  6
 25 31  1  0
 25 36  1  6
 25 37  1  0
 26 30  1  0
 26 38  1  6
 27 39  1  0
 28 40  1  0
 29 41  1  0
  7 42  1  0
  8 43  1  0
 12 44  1  0
 31 45  1  0
M  END
$$$$
GLUCANASE
     RDKit          3D

 45 46  0  0  0  0  0  0  0  0999 V2000
   -0.4935    0.7989   -4.1064 C   0  0  1  0  0  0  0  0  0  0  0  0
   -1.5858    1.5619   -3.3995 C   0  0  1  0  0  0  0  0  0  0  0  0
   -1.3959    1.3944   -1.8817 C   0  0  2  0  0  0  0  0  0  0  0  0
    0.0868    1.0992   -1.6267 C   0  0  1  0  0  0  0  0  0  0  0  0
    0.8756    1.9038   -2.6088 C   0  0  1  0  0  0  0  0  0  0  0  0
    2.3345    2.0557   -2.2828 C   0  0  2  0  0  0  0  0  0  0  0  0
   -0.7094    0.8683   -5.4879 O   0  0  0  0  0  0  0  0  0  0  0  0
   -1.5781    2.8803   -3.7939 O   0  0  0  0  0  0  0  0  0  0  0  0
   -2.2074    0.3327   -1.5095 O   0  0  0  0  0  0  0  0  0  0  0  0
    0.4431    1.0469   -0.3403 O   0  0  0  0  0  0  0  0  0  0  0  0
    0.7867    1.2157   -3.8267 O   0  0  0  0  0  0  0  0  0  0  0  0
    2.5048    2.8010   -1.0929 O   0  0  0  0  0  0  0  0  0  0  0  0
   -0.6207   -0.2717   -3.8459 H   0  0  0  0  0  0  0  0  0  0  0  0
   -2.5609    1.1370   -3.6757 H   0  0  0  0  0  0  0  0  0  0  0  0
   -1.7713    2.2917   -1.4227 H   0  0  0  0  0  0  0  0  0  0  0  0
    0.1518    0.0197   -1.9831 H   0  0  0  0  0  0  0  0  0  0  0  0
    0.4874    2.9471   -2.7170 H   0  0  0  0  0  0  0  0  0  0  0  0
    2.8698    2.6348   -3.0617 H   0  0  0  0  0  0  0  0  0  0  0  0
    2.8410    1.0765   -2.1885 H   0  0  0  0  0  0  0  0  0  0  0  0
   -1.6885   -0.5036   -1.4327 H   0  0  0  0  0  0  0  0  0  0  0  0
    1.8896   -0.1814    1.0597 C   0  0  2  0  0  0  0  0  0  0  0  0
    2.0835   -1.6116    1.5431 C   0  0  2  0  0  0  0  0  0  0  0  0
    0.9048   -1.9906    2.3619 C   0  0  1  0  0  0  0  0  0  0  0  0
   -0.4081   -1.5035    1.8446 C   0  0  1  0  0  0  0  0  0  0  0  0
   -1.3615   -1.3652    3.0229 C   0  0  2  0  0  0  0  0  0  0  0  0
    0.6561   -0.1982    0.2132 C   0  0  1  0  0  0  0  0  0  0  0  0
    3.0393    0.2790    0.4299 O   0  0  0  0  0  0  0  0  0  0  0  0
    3.2939   -1.7667    2.1927 O   0  0  0  0  0  0  0  0  0  0  0  0
    0.8376   -3.3904    2.5402 O   0  0  0  0  0  0  0  0  0  0  0  0
   -0.3982   -0.3544    1.1376 O   0  0  0  0  0  0  0  0  0  0  0  0
   -2.6747   -1.0944    2.6116 O   0  0  0  0  0  0  0  0  0  0  0  0
    1.7575    0.4328    1.9764 H   0  0  0  0  0  0  0  0  0  0  0  0
    2.1111   -2.2272    0.6190 H   0  0  0  0  0  0  0  0  0  0  0  0
    1.0452   -1.5727    3.3816 H   0  0  0  0  0  0  0  0  0  0  0  0
   -0.8162   -2.3075    1.1949 H   0  0  0  0  0  0  0  0  0  0  0  0
   -1.0697   -0.5445    3.7042 H   0  0  0  0  0  0  0  0  0  0  0  0
   -1.4235   -2.3381    3.5901 H   0  0  0  0  0  0  0  0  0  0  0  0
    0.5370   -1.0534   -0.4550 H   0  0  0  0  0  0  0  0  0  0  0  0
    3.5515   -0.5211    0.1444 H   0  0  0  0  0  0  0  0  0  0  0  0
    3.9930   -2.1444    1.6085 H   0  0  0  0  0  0  0  0  0  0  0  0
    0.5334   -3.8276    1.6960 H   0  0  0  0  0  0  0  0  0  0  0  0
   -0.5504    1.7607   -5.8670 H   0  0  0  0  0  0  0  0  0  0  0  0
   -1.9975    3.5017   -3.1522 H   0  0  0  0  0  0  0  0  0  0  0  0
    2.6566    3.7534   -1.3007 H   0  0  0  0  0  0  0  0  0  0  0  0
   -2.7239   -0.1726    2.2085 H   0  0  0  0  0  0  0  0  0  0  0  0
  1  2  1  0
  1  7  1  0
  1 11  1  0
  1 13  1  1
  2  3  1  0
  2  8  1  0
  2 14  1  6
  3  4  1  0
  3  9  1  0
  3 15  1  1
  4  5  1  0
  4 10  1  0
  4 16  1  6
  5  6  1  0
  5 11  1  0
  5 17  1  6
  6 12  1  0
  6 18  1  6
  6 19  1  0
  9 20  1  0
 10 26  1  0
 21 22  1  0
 21 26  1  0
 21 27  1  0
 21 32  1  1
 22 23  1  0
 22 28  1  0
 22 33  1  6
 23 24  1  0
 23 29  1  0
 23 34  1  1
 24 25  1  0
 24 30  1  0
 24 35  1  6
 25 31  1  0
 25 36  1  1
 25 37  1  0
 26 30  1  0
 26 38  1  6
 27 39  1  0
 28 40  1  0
 29 41  1  0
  7 42  1  0
  8 43  1  0
 12 44  1  0
 31 45  1  0
M  END
$$$$
GLUCANASE
     RDKit          3D

 45 46  0  0  0  0  0  0  0  0999 V2000
    0.0156    1.4134    3.3503 C   0  0  1  0  0  0  0  0  0  0  0  0
   -0.7469    0.1900    2.9551 C   0  0  1  0  0  0  0  0  0  0  0  0
    0.0349   -0.5790    1.9465 C   0  0  2  0  0  0  0  0  0  0  0  0
    0.3137    0.3076    0.7252 C   0  0  1  0  0  0  0  0  0  0  0  0
    0.7171    1.6766    1.1625 C   0  0  1  0  0  0  0  0  0  0  0  0
   -0.3308    2.7332    0.8980 C   0  0  2  0  0  0  0  0  0  0  0  0
    0.5594    1.1942    4.6214 O   0  0  0  0  0  0  0  0  0  0  0  0
   -0.9401   -0.6753    4.0563 O   0  0  0  0  0  0  0  0  0  0  0  0
   -0.5942   -1.7431    1.5257 O   0  0  0  0  0  0  0  0  0  0  0  0
    1.3797   -0.3219    0.0823 O   0  0  0  0  0  0  0  0  0  0  0  0
    1.0717    1.7093    2.5136 O   0  0  0  0  0  0  0  0  0  0  0  0
   -0.7304    2.7542   -0.4376 O   0  0  0  0  0  0  0  0  0  0  0  0
   -0.6901    2.2622    3.4788 H   0  0  0  0  0  0  0  0  0  0  0  0
   -1.7676    0.4058    2.5871 H   0  0  0  0  0  0  0  0  0  0  0  0
    1.0199   -0.8340    2.3638 H   0  0  0  0  0  0  0  0  0  0  0  0
   -0.5902    0.3734    0.0808 H   0  0  0  0  0  0  0  0  0  0  0  0
    1.6238    1.9938    0.5961 H   0  0  0  0  0  0  0  0  0  0  0  0
    0.1476    3.7147    1.0922 H   0  0  0  0  0  0  0  0  0  0  0  0
   -1.2324    2.6289    1.5230 H   0  0  0  0  0  0  0  0  0  0  0  0
   -1.4290   -1.9129    1.9912 H   0  0  0  0  0  0  0  0  0  0  0  0
    1.7718   -0.0304   -2.2813 C   0  0  2  0  0  0  0  0  0  0  0  0
    1.1208   -0.3081   -3.5891 C   0  0  2  0  0  0  0  0  0  0  0  0
    0.4287   -1.6321   -3.7114 C   0  0  1  0  0  0  0  0  0  0  0  0
    0.1436   -2.3162   -2.4291 C   0  0  1  0  0  0  0  0  0  0  0  0
    0.1198   -3.8430   -2.5879 C   0  0  2  0  0  0  0  0  0  0  0  0
    0.9513   -0.6711   -1.1898 C   0  0  1  0  0  0  0  0  0  0  0  0
    1.8723    1.3454   -2.0660 O   0  0  0  0  0  0  0  0  0  0  0  0
    2.0777   -0.1893   -4.5987 O   0  0  0  0  0  0  0  0  0  0  0  0
   -0.7898   -1.4101   -4.3548 O   0  0  0  0  0  0  0  0  0  0  0  0
    1.0636   -2.0593   -1.4043 O   0  0  0  0  0  0  0  0  0  0  0  0
    1.3708   -4.3202   -2.9208 O   0  0  0  0  0  0  0  0  0  0  0  0
    2.8078   -0.4502   -2.2862 H   0  0  0  0  0  0  0  0  0  0  0  0
    0.4084    0.5452   -3.7768 H   0  0  0  0  0  0  0  0  0  0  0  0
    1.0162   -2.2950   -4.4058 H   0  0  0  0  0  0  0  0  0  0  0  0
   -0.8309   -1.9765   -2.0220 H   0  0  0  0  0  0  0  0  0  0  0  0
   -0.6552   -4.1110   -3.3542 H   0  0  0  0  0  0  0  0  0  0  0  0
   -0.2287   -4.3162   -1.6476 H   0  0  0  0  0  0  0  0  0  0  0  0
   -0.1118   -0.3598   -1.3532 H   0  0  0  0  0  0  0  0  0  0  0  0
    2.7731    1.5832   -1.7682 H   0  0  0  0  0  0  0  0  0  0  0  0
    2.8562    0.2974   -4.2675 H   0  0  0  0  0  0  0  0  0  0  0  0
   -0.6981   -1.4905   -5.3213 H   0  0  0  0  0  0  0  0  0  0  0  0
    0.7447    2.0338    5.1122 H   0  0  0  0  0  0  0  0  0  0  0  0
   -0.7244   -0.2229    4.9096 H   0  0  0  0  0  0  0  0  0  0  0  0
   -1.6844    2.5121   -0.5242 H   0  0  0  0  0  0  0  0  0  0  0  0
    1.2777   -5.0379   -3.6133 H   0  0  0  0  0  0  0  0  0  0  0  0
  1  2  1  0
  1  7  1  0
  1 11  1  0
  1 13  1  1
  2  3  1  0
  2  8  1  0
  2 14  1  6
  3  4  1  0
  3  9  1  0
  3 15  1  1
  4  5  1  0
  4 10  1  0
  4 16  1  6
  5  6  1  0
  5 11  1  0
  5 17  1  6
  6 12  1  0
  6 18  1  1
  6 19  1  0
  9 20  1  0
 10 26  1  0
 21 22  1  0
 21 26  1  0
 21 27  1  0
 21 32  1  6
 22 23  1  0
 22 28  1  0
 22 33  1  6
 23 24  1  0
 23 29  1  0
 23 34  1  6
 24 25  1  0
 24 30  1  0
 24 35  1  1
 25 31  1  0
 25 36  1  6
 25 37  1  0
 26 30  1  0
 26 38  1  6
 27 39  1  0
 28 40  1  0
 29 41  1  0
  7 42  1  0
  8 43  1  0
 12 44  1  0
 31 45  1  0
M  END
$$$$
GLUCANASE
     RDKit          3D

 45 46  0  0  0  0  0  0  0  0999 V2000
   -2.5650   -0.0294    4.1112 C   0  0  1  0  0  0  0  0  0  0  0  0
   -1.9856   -1.3295    3.6794 C   0  0  1  0  0  0  0  0  0  0  0  0
   -0.8898   -1.2409    2.6683 C   0  0  2  0  0  0  0  0  0  0  0  0
   -1.1664    0.0501    1.8907 C   0  0  1  0  0  0  0  0  0  0  0  0
   -0.8748    1.0961    2.9460 C   0  0  1  0  0  0  0  0  0  0  0  0
   -0.6198    2.4500    2.3302 C   0  0  2  0  0  0  0  0  0  0  0  0
   -2.7336   -0.1117    5.5050 O   0  0  0  0  0  0  0  0  0  0  0  0
   -1.5283   -2.1097    4.7427 O   0  0  0  0  0  0  0  0  0  0  0  0
   -0.7854   -2.3398    1.8355 O   0  0  0  0  0  0  0  0  0  0  0  0
   -0.3822    0.1492    0.7612 O   0  0  0  0  0  0  0  0  0  0  0  0
   -1.8845    1.1001    3.8459 O   0  0  0  0  0  0  0  0  0  0  0  0
   -1.6935    2.9713    1.6541 O   0  0  0  0  0  0  0  0  0  0  0  0
   -3.5929    0.0876    3.6929 H   0  0  0  0  0  0  0  0  0  0  0  0
   -2.7863   -1.9587    3.1935 H   0  0  0  0  0  0  0  0  0  0  0  0
    0.0739   -1.1203    3.2110 H   0  0  0  0  0  0  0  0  0  0  0  0
   -2.2514   -0.0124    1.6668 H   0  0  0  0  0  0  0  0  0  0  0  0
    0.0577    0.8522    3.5056 H   0  0  0  0  0  0  0  0  0  0  0  0
    0.3040    2.3205    1.6948 H   0  0  0  0  0  0  0  0  0  0  0  0
   -0.3001    3.1795    3.1011 H   0  0  0  0  0  0  0  0  0  0  0  0
    0.1509   -2.4177    1.5183 H   0  0  0  0  0  0  0  0  0  0  0  0
   -0.8980    1.4151   -1.1920 C   0  0  2  0  0  0  0  0  0  0  0  0
   -0.0588    1.1922   -2.4401 C   0  0  2  0  0  0  0  0  0  0  0  0
   -0.7117    0.1232   -3.2551 C   0  0  1  0  0  0  0  0  0  0  0  0
   -1.1654   -1.0295   -2.4267 C   0  0  1  0  0  0  0  0  0  0  0  0
   -0.6319   -2.3664   -2.9603 C   0  0  2  0  0  0  0  0  0  0  0  0
   -1.1351    0.1484   -0.4178 C   0  0  1  0  0  0  0  0  0  0  0  0
   -2.0919    1.9850   -1.6323 O   0  0  0  0  0  0  0  0  0  0  0  0
    1.2372    0.9231   -2.0560 O   0  0  0  0  0  0  0  0  0  0  0  0
   -1.7913    0.7166   -3.9174 O   0  0  0  0  0  0  0  0  0  0  0  0
   -0.7438   -0.9816   -1.1175 O   0  0  0  0  0  0  0  0  0  0  0  0
    0.7578   -2.3682   -2.8572 O   0  0  0  0  0  0  0  0  0  0  0  0
   -0.3465    2.1878   -0.6115 H   0  0  0  0  0  0  0  0  0  0  0  0
   -0.0667    2.1472   -3.0047 H   0  0  0  0  0  0  0  0  0  0  0  0
   -0.0286   -0.2163   -4.0876 H   0  0  0  0  0  0  0  0  0  0  0  0
   -2.2679   -1.1224   -2.5094 H   0  0  0  0  0  0  0  0  0  0  0  0
   -0.9923   -2.6066   -3.9582 H   0  0  0  0  0  0  0  0  0  0  0  0
   -0.9997   -3.1362   -2.2446 H   0  0  0  0  0  0  0  0  0  0  0  0
   -2.2139    0.0646   -0.1158 H   0  0  0  0  0  0  0  0  0  0  0  0
   -1.8646    2.6322   -2.3533 H   0  0  0  0  0  0  0  0  0  0  0  0
    1.8739    1.1671   -2.7846 H   0  0  0  0  0  0  0  0  0  0  0  0
   -2.6439    0.6109   -3.4450 H   0  0  0  0  0  0  0  0  0  0  0  0
   -1.9372   -0.3871    5.9843 H   0  0  0  0  0  0  0  0  0  0  0  0
   -0.6469   -2.5166    4.5885 H   0  0  0  0  0  0  0  0  0  0  0  0
   -1.3997    3.8280    1.2675 H   0  0  0  0  0  0  0  0  0  0  0  0
    1.0997   -3.2679   -2.9877 H   0  0  0  0  0  0  0  0  0  0  0  0
  1  2  1  0
  1  7  1  0
  1 11  1  0
  1 13  1  6
  2  3  1  0
  2  8  1  0
  2 14  1  6
  3  4  1  0
  3  9  1  0
  3 15  1  1
  4  5  1  0
  4 10  1  0
  4 16  1  6
  5  6  1  0
  5 11  1  0
  5 17  1  1
  6 12  1  0
  6 18  1  6
  6 19  1  0
  9 20  1  0
 10 26  1  0
 21 22  1  0
 21 26  1  0
 21 27  1  0
 21 32  1  1
 22 23  1  0
 22 28  1  0
 22 33  1  6
 23 24  1  0
 23 29  1  0
 23 34  1  6
 24 25  1  0
 24 30  1  0
 24 35  1  1
 25 31  1  0
 25 36  1  6
 25 37  1  0
 26 30  1  0
 26 38  1  1
 27 39  1  0
 28 40  1  0
 29 41  1  0
  7 42  1  0
  8 43  1  0
 12 44  1  0
 31 45  1  0
M  END
$$$$
GLUCANASE
     RDKit          3D

 45 46  0  0  0  0  0  0  0  0999 V2000
    2.1161    1.0674   -2.7423 C   0  0  1  0  0  0  0  0  0  0  0  0
    1.7571    2.1541   -1.7835 C   0  0  1  0  0  0  0  0  0  0  0  0
    0.3184    2.1950   -1.3823 C   0  0  2  0  0  0  0  0  0  0  0  0
   -0.1656    0.7496   -1.2981 C   0  0  1  0  0  0  0  0  0  0  0  0
   -0.0014    0.1123   -2.6209 C   0  0  1  0  0  0  0  0  0  0  0  0
   -1.2183    0.4805   -3.4845 C   0  0  2  0  0  0  0  0  0  0  0  0
    3.0297    0.1937   -2.1400 O   0  0  0  0  0  0  0  0  0  0  0  0
    2.5248    2.0333   -0.6058 O   0  0  0  0  0  0  0  0  0  0  0  0
   -0.4500    2.9731   -2.2286 O   0  0  0  0  0  0  0  0  0  0  0  0
    0.5153    0.1831   -0.2479 O   0  0  0  0  0  0  0  0  0  0  0  0
    1.0851    0.4440   -3.3648 O   0  0  0  0  0  0  0  0  0  0  0  0
   -2.3854    0.1856   -2.8264 O   0  0  0  0  0  0  0  0  0  0  0  0
    2.7166    1.5584   -3.5655 H   0  0  0  0  0  0  0  0  0  0  0  0
    2.0115    3.1810   -2.1676 H   0  0  0  0  0  0  0  0  0  0  0  0
    0.2576    2.6630   -0.3703 H   0  0  0  0  0  0  0  0  0  0  0  0
   -1.2590    0.8346   -1.0338 H   0  0  0  0  0  0  0  0  0  0  0  0
   -0.1210   -1.0044   -2.4984 H   0  0  0  0  0  0  0  0  0  0  0  0
   -1.1825   -0.1961   -4.3882 H   0  0  0  0  0  0  0  0  0  0  0  0
   -1.1429    1.4956   -3.9020 H   0  0  0  0  0  0  0  0  0  0  0  0
   -0.2792    3.9232   -1.9651 H   0  0  0  0  0  0  0  0  0  0  0  0
   -0.1503   -1.6261    1.1062 C   0  0  2  0  0  0  0  0  0  0  0  0
   -1.3157   -1.9683    2.0054 C   0  0  2  0  0  0  0  0  0  0  0  0
   -1.2920   -1.0665    3.1979 C   0  0  1  0  0  0  0  0  0  0  0  0
   -0.8804    0.3442    2.9198 C   0  0  1  0  0  0  0  0  0  0  0  0
   -0.6274    1.0469    4.2285 C   0  0  2  0  0  0  0  0  0  0  0  0
   -0.2529   -0.1386    0.8398 C   0  0  1  0  0  0  0  0  0  0  0  0
   -0.2185   -2.3452   -0.0995 O   0  0  0  0  0  0  0  0  0  0  0  0
   -1.2956   -3.2961    2.4094 O   0  0  0  0  0  0  0  0  0  0  0  0
   -2.6016   -1.0045    3.7003 O   0  0  0  0  0  0  0  0  0  0  0  0
    0.1607    0.4827    2.0158 O   0  0  0  0  0  0  0  0  0  0  0  0
   -1.7338    0.8508    5.0774 O   0  0  0  0  0  0  0  0  0  0  0  0
    0.7960   -1.8510    1.6555 H   0  0  0  0  0  0  0  0  0  0  0  0
   -2.2435   -1.8233    1.4195 H   0  0  0  0  0  0  0  0  0  0  0  0
   -0.6992   -1.5409    4.0117 H   0  0  0  0  0  0  0  0  0  0  0  0
   -1.7834    0.8556    2.4797 H   0  0  0  0  0  0  0  0  0  0  0  0
   -0.4589    2.1371    4.0787 H   0  0  0  0  0  0  0  0  0  0  0  0
    0.2601    0.5817    4.7048 H   0  0  0  0  0  0  0  0  0  0  0  0
   -1.3221    0.1003    0.7299 H   0  0  0  0  0  0  0  0  0  0  0  0
    0.6573   -2.2838   -0.5549 H   0  0  0  0  0  0  0  0  0  0  0  0
   -0.3628   -3.5947    2.5035 H   0  0  0  0  0  0  0  0  0  0  0  0
   -3.1765   -1.7427    3.3460 H   0  0  0  0  0  0  0  0  0  0  0  0
    3.9551    0.3288   -2.4016 H   0  0  0  0  0  0  0  0  0  0  0  0
    3.3771    2.5271   -0.6754 H   0  0  0  0  0  0  0  0  0  0  0  0
   -3.0949    0.8683   -2.9006 H   0  0  0  0  0  0  0  0  0  0  0  0
   -2.5482    1.1639    4.6049 H   0  0  0  0  0  0  0  0  0  0  0  0
  1  2  1  0
  1  7  1  0
  1 11  1  0
  1 13  1  6
  2  3  1  0
  2  8  1  0
  2 14  1  6
  3  4  1  0
  3  9  1  0
  3 15  1  1
  4  5  1  0
  4 10  1  0
  4 16  1  1
  5  6  1  0
  5 11  1  0
  5 17  1  1
  6 12  1  0
  6 18  1  6
  6 19  1  0
  9 20  1  0
 10 26  1  0
 21 22  1  0
 21 26  1  0
 21 27  1  0
 21 32  1  1
 22 23  1  0
 22 28  1  0
 22 33  1  6
 23 24  1  0
 23 29  1  0
 23 34  1  1
 24 25  1  0
 24 30  1  0
 24 35  1  6
 25 31  1  0
 25 36  1  6
 25 37  1  0
 26 30  1  0
 26 38  1  6
 27 39  1  0
 28 40  1  0
 29 41  1  0
  7 42  1  0
  8 43  1  0
 12 44  1  0
 31 45  1  0
M  END
$$$$
GLUCANASE
     RDKit          3D

 45 46  0  0  0  0  0  0  0  0999 V2000
   -0.1540   -1.7984   -3.3835 C   0  0  1  0  0  0  0  0  0  0  0  0
   -1.5518   -1.3447   -2.9952 C   0  0  1  0  0  0  0  0  0  0  0  0
   -1.4920   -0.0890   -2.1382 C   0  0  2  0  0  0  0  0  0  0  0  0
   -0.1017   -0.1402   -1.4908 C   0  0  1  0  0  0  0  0  0  0  0  0
    0.8899    0.1163   -2.5669 C   0  0  1  0  0  0  0  0  0  0  0  0
    2.3180    0.1326   -2.0968 C   0  0  2  0  0  0  0  0  0  0  0  0
   -0.2903   -2.4822   -4.6102 O   0  0  0  0  0  0  0  0  0  0  0  0
   -2.2727   -1.1266   -4.1626 O   0  0  0  0  0  0  0  0  0  0  0  0
   -2.5043    0.0070   -1.2205 O   0  0  0  0  0  0  0  0  0  0  0  0
   -0.0217    0.7256   -0.4182 O   0  0  0  0  0  0  0  0  0  0  0  0
    0.6988   -0.7511   -3.6139 O   0  0  0  0  0  0  0  0  0  0  0  0
    2.7904   -1.0775   -1.6525 O   0  0  0  0  0  0  0  0  0  0  0  0
    0.1941   -2.5444   -2.6711 H   0  0  0  0  0  0  0  0  0  0  0  0
   -2.0012   -2.1498   -2.3994 H   0  0  0  0  0  0  0  0  0  0  0  0
   -1.5388    0.7843   -2.8203 H   0  0  0  0  0  0  0  0  0  0  0  0
    0.0119   -1.1918   -1.1579 H   0  0  0  0  0  0  0  0  0  0  0  0
    0.6874    1.1441   -2.9684 H   0  0  0  0  0  0  0  0  0  0  0  0
    2.4882    0.9652   -1.4181 H   0  0  0  0  0  0  0  0  0  0  0  0
    2.9224    0.3790   -3.0198 H   0  0  0  0  0  0  0  0  0  0  0  0
   -3.3090    0.3196   -1.7105 H   0  0  0  0  0  0  0  0  0  0  0  0
    1.4487    0.4299    1.4628 C   0  0  2  0  0  0  0  0  0  0  0  0
    1.4079    1.9015    1.7518 C   0  0  2  0  0  0  0  0  0  0  0  0
    0.0391    2.2714    2.2298 C   0  0  1  0  0  0  0  0  0  0  0  0
   -0.7916    1.0752    2.6155 C   0  0  1  0  0  0  0  0  0  0  0  0
   -2.2013    1.6086    2.8950 C   0  0  2  0  0  0  0  0  0  0  0  0
    0.1770    0.0354    0.7688 C   0  0  1  0  0  0  0  0  0  0  0  0
    1.5105   -0.2609    2.6820 O   0  0  0  0  0  0  0  0  0  0  0  0
    1.7469    2.6413    0.6278 O   0  0  0  0  0  0  0  0  0  0  0  0
    0.0588    3.1420    3.3289 O   0  0  0  0  0  0  0  0  0  0  0  0
   -0.9172    0.1381    1.6253 O   0  0  0  0  0  0  0  0  0  0  0  0
   -2.1660    2.5832    3.9064 O   0  0  0  0  0  0  0  0  0  0  0  0
    2.3266    0.1789    0.8426 H   0  0  0  0  0  0  0  0  0  0  0  0
    2.1707    2.1834    2.5315 H   0  0  0  0  0  0  0  0  0  0  0  0
   -0.5017    2.7619    1.3754 H   0  0  0  0  0  0  0  0  0  0  0  0
   -0.4280    0.6683    3.5984 H   0  0  0  0  0  0  0  0  0  0  0  0
   -2.8846    0.8167    3.2409 H   0  0  0  0  0  0  0  0  0  0  0  0
   -2.6466    2.0259    1.9565 H   0  0  0  0  0  0  0  0  0  0  0  0
    0.2194   -1.0575    0.4969 H   0  0  0  0  0  0  0  0  0  0  0  0
    1.9793    0.2985    3.3538 H   0  0  0  0  0  0  0  0  0  0  0  0
    2.7247    2.7052    0.4890 H   0  0  0  0  0  0  0  0  0  0  0  0
    0.1541    2.6610    4.1798 H   0  0  0  0  0  0  0  0  0  0  0  0
   -1.0529   -3.1181   -4.5559 H   0  0  0  0  0  0  0  0  0  0  0  0
   -2.2670   -0.1627   -4.4165 H   0  0  0  0  0  0  0  0  0  0  0  0
    3.6413   -0.8888   -1.1675 H   0  0  0  0  0  0  0  0  0  0  0  0
   -2.0952    2.0371    4.7537 H   0  0  0  0  0  0  0  0  0  0  0  0
  1  2  1  0
  1  7  1  0
  1 11  1  0
  1 13  1  1
  2  3  1  0
  2  8  1  0
  2 14  1  1
  3  4  1  0
  3  9  1  0
  3 15  1  6
  4  5  1  0
  4 10  1  0
  4 16  1  1
  5  6  1  0
  5 11  1  0
  5 17  1  6
  6 12  1  0
  6 18  1  1
  6 19  1  0
  9 20  1  0
 10 26  1  0
 21 22  1  0
 21 26  1  0
 21 27  1  0
 21 32  1  6
 22 23  1  0
 22 28  1  0
 22 33  1  1
 23 24  1  0
 23 29  1  0
 23 34  1  6
 24 25  1  0
 24 30  1  0
 24 35  1  1
 25 31  1  0
 25 36  1  1
 25 37  1  0
 26 30  1  0
 26 38  1  6
 27 39  1  0
 28 40  1  0
 29 41  1  0
  7 42  1  0
  8 43  1  0
 12 44  1  0
 31 45  1  0
M  END
$$$$
GLUCANASE
     RDKit          3D

 45 46  0  0  0  0  0  0  0  0999 V2000
   -1.8586    1.4083   -3.3934 C   0  0  1  0  0  0  0  0  0  0  0  0
   -0.5744    0.6072   -3.2862 C   0  0  1  0  0  0  0  0  0  0  0  0
   -0.5287    0.0914   -1.8773 C   0  0  2  0  0  0  0  0  0  0  0  0
   -0.4123    1.2199   -0.8617 C   0  0  1  0  0  0  0  0  0  0  0  0
   -1.4088    2.2431   -1.2502 C   0  0  1  0  0  0  0  0  0  0  0  0
   -0.7210    3.5121   -1.7352 C   0  0  2  0  0  0  0  0  0  0  0  0
   -2.8132    0.5195   -3.9443 O   0  0  0  0  0  0  0  0  0  0  0  0
   -0.6015   -0.5357   -4.1111 O   0  0  0  0  0  0  0  0  0  0  0  0
    0.5089   -0.7918   -1.6293 O   0  0  0  0  0  0  0  0  0  0  0  0
   -0.4946    0.6041    0.3129 O   0  0  0  0  0  0  0  0  0  0  0  0
   -2.3454    1.8372   -2.1929 O   0  0  0  0  0  0  0  0  0  0  0  0
   -1.6248    4.5489   -1.9268 O   0  0  0  0  0  0  0  0  0  0  0  0
   -1.7640    2.2105   -4.1795 H   0  0  0  0  0  0  0  0  0  0  0  0
    0.3284    1.1940   -3.5034 H   0  0  0  0  0  0  0  0  0  0  0  0
   -1.4904   -0.4512   -1.6490 H   0  0  0  0  0  0  0  0  0  0  0  0
    0.6147    1.6313   -1.0038 H   0  0  0  0  0  0  0  0  0  0  0  0
   -2.0537    2.5942   -0.3920 H   0  0  0  0  0  0  0  0  0  0  0  0
   -0.1865    3.3914   -2.6869 H   0  0  0  0  0  0  0  0  0  0  0  0
    0.0341    3.8295   -0.9863 H   0  0  0  0  0  0  0  0  0  0  0  0
    0.5869   -1.3918   -2.4384 H   0  0  0  0  0  0  0  0  0  0  0  0
   -0.0627    1.0926    2.5017 C   0  0  2  0  0  0  0  0  0  0  0  0
    0.5075    0.5491    3.7535 C   0  0  2  0  0  0  0  0  0  0  0  0
    0.8829   -0.9101    3.7126 C   0  0  1  0  0  0  0  0  0  0  0  0
    1.6307   -1.1246    2.4123 C   0  0  1  0  0  0  0  0  0  0  0  0
    2.1455   -2.5324    2.3509 C   0  0  2  0  0  0  0  0  0  0  0  0
    0.4540    0.4629    1.2218 C   0  0  1  0  0  0  0  0  0  0  0  0
    0.2021    2.4611    2.3884 O   0  0  0  0  0  0  0  0  0  0  0  0
   -0.4364    0.6847    4.7769 O   0  0  0  0  0  0  0  0  0  0  0  0
    1.6087   -1.2368    4.8352 O   0  0  0  0  0  0  0  0  0  0  0  0
    0.6954   -0.9194    1.4013 O   0  0  0  0  0  0  0  0  0  0  0  0
    1.1642   -3.4803    2.5055 O   0  0  0  0  0  0  0  0  0  0  0  0
   -1.1816    0.9554    2.5486 H   0  0  0  0  0  0  0  0  0  0  0  0
    1.3851    1.1547    4.1014 H   0  0  0  0  0  0  0  0  0  0  0  0
   -0.0553   -1.5079    3.6777 H   0  0  0  0  0  0  0  0  0  0  0  0
    2.4512   -0.4122    2.3418 H   0  0  0  0  0  0  0  0  0  0  0  0
    2.8608   -2.6820    3.2052 H   0  0  0  0  0  0  0  0  0  0  0  0
    2.7456   -2.6784    1.4325 H   0  0  0  0  0  0  0  0  0  0  0  0
    1.4556    0.8857    1.0402 H   0  0  0  0  0  0  0  0  0  0  0  0
   -0.6217    2.9787    2.2164 H   0  0  0  0  0  0  0  0  0  0  0  0
   -1.2730    0.1593    4.5931 H   0  0  0  0  0  0  0  0  0  0  0  0
    1.0106   -1.5948    5.5482 H   0  0  0  0  0  0  0  0  0  0  0  0
   -3.7178    0.8844   -3.9370 H   0  0  0  0  0  0  0  0  0  0  0  0
    0.2868   -0.6442   -4.5175 H   0  0  0  0  0  0  0  0  0  0  0  0
   -1.3461    5.1967   -2.5942 H   0  0  0  0  0  0  0  0  0  0  0  0
    1.5541   -4.3225    2.8500 H   0  0  0  0  0  0  0  0  0  0  0  0
  1  2  1  0
  1  7  1  0
  1 11  1  0
  1 13  1  6
  2  3  1  0
  2  8  1  0
  2 14  1  6
  3  4  1  0
  3  9  1  0
  3 15  1  1
  4  5  1  0
  4 10  1  0
  4 16  1  1
  5  6  1  0
  5 11  1  0
  5 17  1  1
  6 12  1  0
  6 18  1  6
  6 19  1  0
  9 20  1  0
 10 26  1  0
 21 22  1  0
 21 26  1  0
 21 27  1  0
 21 32  1  1
 22 23  1  0
 22 28  1  0
 22 33  1  1
 23 24  1  0
 23 29  1  0
 23 34  1  6
 24 25  1  0
 24 30  1  0
 24 35  1  6
 25 31  1  0
 25 36  1  1
 25 37  1  0
 26 30  1  0
 26 38  1  6
 27 39  1  0
 28 40  1  0
 29 41  1  0
  7 42  1  0
  8 43  1  0
 12 44  1  0
 31 45  1  0
M  END
$$$$
GLUCANASE
     RDKit          3D

 45 46  0  0  0  0  0  0  0  0999 V2000
    2.0492    2.7333   -1.5968 C   0  0  1  0  0  0  0  0  0  0  0  0
    1.1341    1.9102   -2.4259 C   0  0  1  0  0  0  0  0  0  0  0  0
    0.0008    1.2633   -1.6494 C   0  0  2  0  0  0  0  0  0  0  0  0
    0.5127    0.8185   -0.2644 C   0  0  1  0  0  0  0  0  0  0  0  0
    0.9874    2.0960    0.3053 C   0  0  1  0  0  0  0  0  0  0  0  0
    1.1909    2.2297    1.7565 C   0  0  2  0  0  0  0  0  0  0  0  0
    1.7220    4.0909   -1.5532 O   0  0  0  0  0  0  0  0  0  0  0  0
    0.5427    2.7447   -3.3743 O   0  0  0  0  0  0  0  0  0  0  0  0
   -0.6250    0.2903   -2.3512 O   0  0  0  0  0  0  0  0  0  0  0  0
   -0.5135    0.1679    0.3286 O   0  0  0  0  0  0  0  0  0  0  0  0
    2.2464    2.3266   -0.3021 O   0  0  0  0  0  0  0  0  0  0  0  0
    0.0908    2.0485    2.5645 O   0  0  0  0  0  0  0  0  0  0  0  0
    3.0686    2.7059   -2.0830 H   0  0  0  0  0  0  0  0  0  0  0  0
    1.7258    1.1288   -2.9814 H   0  0  0  0  0  0  0  0  0  0  0  0
   -0.7209    2.0798   -1.4315 H   0  0  0  0  0  0  0  0  0  0  0  0
    1.3807    0.1343   -0.3926 H   0  0  0  0  0  0  0  0  0  0  0  0
    0.3910    2.9994   -0.0187 H   0  0  0  0  0  0  0  0  0  0  0  0
    1.5003    3.2873    1.9210 H   0  0  0  0  0  0  0  0  0  0  0  0
    2.0960    1.6689    2.1356 H   0  0  0  0  0  0  0  0  0  0  0  0
   -0.0631   -0.3275   -2.8664 H   0  0  0  0  0  0  0  0  0  0  0  0
   -0.2448   -1.5097    2.0691 C   0  0  2  0  0  0  0  0  0  0  0  0
   -1.5503   -2.0676    2.5991 C   0  0  2  0  0  0  0  0  0  0  0  0
   -2.1069   -3.0850    1.6669 C   0  0  1  0  0  0  0  0  0  0  0  0
   -2.1003   -2.5819    0.2767 C   0  0  1  0  0  0  0  0  0  0  0  0
   -3.2989   -1.6337    0.1144 C   0  0  2  0  0  0  0  0  0  0  0  0
   -0.2403   -1.1875    0.6253 C   0  0  1  0  0  0  0  0  0  0  0  0
    0.7141   -2.5155    2.3282 O   0  0  0  0  0  0  0  0  0  0  0  0
   -2.4509   -1.0546    2.8707 O   0  0  0  0  0  0  0  0  0  0  0  0
   -1.4980   -4.3267    1.8234 O   0  0  0  0  0  0  0  0  0  0  0  0
   -1.0244   -1.9246   -0.1829 O   0  0  0  0  0  0  0  0  0  0  0  0
   -3.4083   -1.3411   -1.2422 O   0  0  0  0  0  0  0  0  0  0  0  0
   -0.0013   -0.6890    2.7451 H   0  0  0  0  0  0  0  0  0  0  0  0
   -1.3619   -2.5834    3.5745 H   0  0  0  0  0  0  0  0  0  0  0  0
   -3.1856   -3.2410    1.9562 H   0  0  0  0  0  0  0  0  0  0  0  0
   -2.3336   -3.4655   -0.3878 H   0  0  0  0  0  0  0  0  0  0  0  0
   -3.0842   -0.6861    0.6513 H   0  0  0  0  0  0  0  0  0  0  0  0
   -4.2094   -2.0449    0.5451 H   0  0  0  0  0  0  0  0  0  0  0  0
    0.8200   -1.3120    0.2509 H   0  0  0  0  0  0  0  0  0  0  0  0
    0.5976   -3.2780    1.6980 H   0  0  0  0  0  0  0  0  0  0  0  0
   -2.4335   -0.7336    3.7982 H   0  0  0  0  0  0  0  0  0  0  0  0
   -1.2392   -4.7379    0.9632 H   0  0  0  0  0  0  0  0  0  0  0  0
    0.8016    4.2968   -1.8017 H   0  0  0  0  0  0  0  0  0  0  0  0
    1.2215    3.0589   -4.0344 H   0  0  0  0  0  0  0  0  0  0  0  0
   -0.7515    1.8903    2.0710 H   0  0  0  0  0  0  0  0  0  0  0  0
   -3.9863   -0.5362   -1.3656 H   0  0  0  0  0  0  0  0  0  0  0  0
  1  2  1  0
  1  7  1  0
  1 11  1  0
  1 13  1  6
  2  3  1  0
  2  8  1  0
  2 14  1  6
  3  4  1  0
  3  9  1  0
  3 15  1  1
  4  5  1  0
  4 10  1  0
  4 16  1  6
  5  6  1  0
  5 11  1  0
  5 17  1  6
  6 12  1  0
  6 18  1  6
  6 19  1  0
  9 20  1  0
 10 26  1  0
 21 22  1  0
 21 26  1  0
 21 27  1  0
 21 32  1  1
 22 23  1  0
 22 28  1  0
 22 33  1  1
 23 24  1  0
 23 29  1  0
 23 34  1  1
 24 25  1  0
 24 30  1  0
 24 35  1  6
 25 31  1  0
 25 36  1  1
 25 37  1  0
 26 30  1  0
 26 38  1  6
 27 39  1  0
 28 40  1  0
 29 41  1  0
  7 42  1  0
  8 43  1  0
 12 44  1  0
 31 45  1  0
M  END
$$$$
GLUCANASE
     RDKit          3D

 45 46  0  0  0  0  0  0  0  0999 V2000
   -1.0547   -3.8549   -1.4390 C   0  0  1  0  0  0  0  0  0  0  0  0
    0.4311   -3.6745   -1.4774 C   0  0  1  0  0  0  0  0  0  0  0  0
    0.9160   -2.4298   -0.8160 C   0  0  2  0  0  0  0  0  0  0  0  0
   -0.0883   -1.3053   -0.8564 C   0  0  1  0  0  0  0  0  0  0  0  0
   -1.1995   -1.5566   -1.8544 C   0  0  1  0  0  0  0  0  0  0  0  0
   -0.7765   -1.1517   -3.2575 C   0  0  2  0  0  0  0  0  0  0  0  0
   -1.4070   -4.1720   -0.1051 O   0  0  0  0  0  0  0  0  0  0  0  0
    1.0382   -4.7697   -0.8638 O   0  0  0  0  0  0  0  0  0  0  0  0
    2.1082   -2.0722   -1.4471 O   0  0  0  0  0  0  0  0  0  0  0  0
   -0.5699   -0.9464    0.3881 O   0  0  0  0  0  0  0  0  0  0  0  0
   -1.8033   -2.7688   -1.7640 O   0  0  0  0  0  0  0  0  0  0  0  0
   -0.1722    0.1236   -3.1549 O   0  0  0  0  0  0  0  0  0  0  0  0
   -1.3026   -4.7661   -2.0220 H   0  0  0  0  0  0  0  0  0  0  0  0
    0.7769   -3.7376   -2.5498 H   0  0  0  0  0  0  0  0  0  0  0  0
    1.2181   -2.6856    0.2253 H   0  0  0  0  0  0  0  0  0  0  0  0
    0.4514   -0.4060   -1.2255 H   0  0  0  0  0  0  0  0  0  0  0  0
   -1.9918   -0.8002   -1.5733 H   0  0  0  0  0  0  0  0  0  0  0  0
   -1.6550   -0.9741   -3.9114 H   0  0  0  0  0  0  0  0  0  0  0  0
   -0.1228   -1.8671   -3.7546 H   0  0  0  0  0  0  0  0  0  0  0  0
    2.9015   -2.5373   -1.1252 H   0  0  0  0  0  0  0  0  0  0  0  0
   -1.5687    1.0978    0.8680 C   0  0  2  0  0  0  0  0  0  0  0  0
   -1.5622    2.1103    1.9951 C   0  0  2  0  0  0  0  0  0  0  0  0
   -1.1896    1.5304    3.3174 C   0  0  1  0  0  0  0  0  0  0  0  0
   -0.2890    0.3572    3.1344 C   0  0  1  0  0  0  0  0  0  0  0  0
   -1.0023   -0.9658    3.3600 C   0  0  2  0  0  0  0  0  0  0  0  0
   -0.2644    0.3409    0.7931 C   0  0  1  0  0  0  0  0  0  0  0  0
   -1.7222    1.8089   -0.3193 O   0  0  0  0  0  0  0  0  0  0  0  0
   -2.8548    2.6671    1.9995 O   0  0  0  0  0  0  0  0  0  0  0  0
   -0.5050    2.5161    4.0343 O   0  0  0  0  0  0  0  0  0  0  0  0
    0.4301    0.3406    1.9820 O   0  0  0  0  0  0  0  0  0  0  0  0
   -0.0960   -2.0214    3.4466 O   0  0  0  0  0  0  0  0  0  0  0  0
   -2.4563    0.4342    0.9204 H   0  0  0  0  0  0  0  0  0  0  0  0
   -0.8802    2.9491    1.7500 H   0  0  0  0  0  0  0  0  0  0  0  0
   -2.0670    1.2424    3.9350 H   0  0  0  0  0  0  0  0  0  0  0  0
    0.4760    0.3936    3.9686 H   0  0  0  0  0  0  0  0  0  0  0  0
   -1.6152   -1.1881    2.4635 H   0  0  0  0  0  0  0  0  0  0  0  0
   -1.6040   -0.9459    4.2893 H   0  0  0  0  0  0  0  0  0  0  0  0
    0.3263    0.8016   -0.0230 H   0  0  0  0  0  0  0  0  0  0  0  0
   -1.1433    2.5924   -0.4054 H   0  0  0  0  0  0  0  0  0  0  0  0
   -3.0371    3.1826    2.8278 H   0  0  0  0  0  0  0  0  0  0  0  0
    0.2121    2.1069    4.6134 H   0  0  0  0  0  0  0  0  0  0  0  0
   -0.6386   -4.1345    0.5044 H   0  0  0  0  0  0  0  0  0  0  0  0
    1.5614   -4.5033   -0.0453 H   0  0  0  0  0  0  0  0  0  0  0  0
   -0.1003    0.5343   -4.0345 H   0  0  0  0  0  0  0  0  0  0  0  0
   -0.5648   -2.8587    3.1958 H   0  0  0  0  0  0  0  0  0  0  0  0
  1  2  1  0
  1  7  1  0
  1 11  1  0
  1 13  1  6
  2  3  1  0
  2  8  1  0
  2 14  1  6
  3  4  1  0
  3  9  1  0
  3 15  1  1
  4  5  1  0
  4 10  1  0
  4 16  1  6
  5  6  1  0
  5 11  1  0
  5 17  1  1
  6 12  1  0
  6 18  1  6
  6 19  1  0
  9 20  1  0
 10 26  1  0
 21 22  1  0
 21 26  1  0
 21 27  1  0
 21 32  1  1
 22 23  1  0
 22 28  1  0
 22 33  1  6
 23 24  1  0
 23 29  1  0
 23 34  1  1
 24 25  1  0
 24 30  1  0
 24 35  1  1
 25 31  1  0
 25 36  1  6
 25 37  1  0
 26 30  1  0
 26 38  1  6
 27 39  1  0
 28 40  1  0
 29 41  1  0
  7 42  1  0
  8 43  1  0
 12 44  1  0
 31 45  1  0
M  END
$$$$
GLUCANASE
     RDKit          3D

 45 46  0  0  0  0  0  0  0  0999 V2000
   -1.5107   -1.2068    2.8573 C   0  0  1  0  0  0  0  0  0  0  0  0
   -2.4075   -0.2542    2.1510 C   0  0  1  0  0  0  0  0  0  0  0  0
   -1.7745    0.9788    1.6065 C   0  0  2  0  0  0  0  0  0  0  0  0
   -0.2797    0.9299    1.4637 C   0  0  1  0  0  0  0  0  0  0  0  0
    0.3164    0.1168    2.5938 C   0  0  1  0  0  0  0  0  0  0  0  0
    0.1672    0.7222    3.9403 C   0  0  2  0  0  0  0  0  0  0  0  0
   -1.9461   -2.5108    2.6050 O   0  0  0  0  0  0  0  0  0  0  0  0
   -3.1524   -0.9432    1.1664 O   0  0  0  0  0  0  0  0  0  0  0  0
   -2.1351    2.0969    2.3675 O   0  0  0  0  0  0  0  0  0  0  0  0
    0.1787    0.3454    0.3306 O   0  0  0  0  0  0  0  0  0  0  0  0
   -0.1808   -1.1695    2.4800 O   0  0  0  0  0  0  0  0  0  0  0  0
    0.6958    2.0285    3.9758 O   0  0  0  0  0  0  0  0  0  0  0  0
   -1.5600   -1.1070    3.9760 H   0  0  0  0  0  0  0  0  0  0  0  0
   -3.1953    0.0506    2.8978 H   0  0  0  0  0  0  0  0  0  0  0  0
   -2.2685    1.1800    0.6119 H   0  0  0  0  0  0  0  0  0  0  0  0
    0.0897    1.9743    1.5591 H   0  0  0  0  0  0  0  0  0  0  0  0
    1.4053    0.0379    2.3834 H   0  0  0  0  0  0  0  0  0  0  0  0
    0.8096    0.1372    4.6317 H   0  0  0  0  0  0  0  0  0  0  0  0
   -0.8283    0.7574    4.3639 H   0  0  0  0  0  0  0  0  0  0  0  0
   -1.7896    2.9311    2.0184 H   0  0  0  0  0  0  0  0  0  0  0  0
    2.3140    0.4706   -0.7900 C   0  0  2  0  0  0  0  0  0  0  0  0
    2.5681   -0.0480   -2.1530 C   0  0  2  0  0  0  0  0  0  0  0  0
    1.4722    0.1464   -3.1552 C   0  0  1  0  0  0  0  0  0  0  0  0
    0.1396    0.2636   -2.5008 C   0  0  1  0  0  0  0  0  0  0  0  0
   -0.2985   -1.0252   -1.8948 C   0  0  2  0  0  0  0  0  0  0  0  0
    0.9852    1.0595   -0.5037 C   0  0  1  0  0  0  0  0  0  0  0  0
    3.3367    1.3911   -0.4588 O   0  0  0  0  0  0  0  0  0  0  0  0
    2.9659   -1.4068   -2.1458 O   0  0  0  0  0  0  0  0  0  0  0  0
    1.6736    1.3073   -3.9300 O   0  0  0  0  0  0  0  0  0  0  0  0
    0.2078    1.3388   -1.6327 O   0  0  0  0  0  0  0  0  0  0  0  0
   -0.2976   -1.9742   -2.9444 O   0  0  0  0  0  0  0  0  0  0  0  0
    2.5027   -0.3827   -0.0726 H   0  0  0  0  0  0  0  0  0  0  0  0
    3.4657    0.4585   -2.6138 H   0  0  0  0  0  0  0  0  0  0  0  0
    1.4286   -0.7490   -3.8266 H   0  0  0  0  0  0  0  0  0  0  0  0
   -0.6101    0.5381   -3.2669 H   0  0  0  0  0  0  0  0  0  0  0  0
   -1.3186   -0.9903   -1.5111 H   0  0  0  0  0  0  0  0  0  0  0  0
    0.4056   -1.4485   -1.1503 H   0  0  0  0  0  0  0  0  0  0  0  0
    1.1184    2.0652   -0.0511 H   0  0  0  0  0  0  0  0  0  0  0  0
    3.0968    2.2865   -0.7880 H   0  0  0  0  0  0  0  0  0  0  0  0
    3.7475   -1.4811   -1.5410 H   0  0  0  0  0  0  0  0  0  0  0  0
    0.8822    1.3357   -4.5404 H   0  0  0  0  0  0  0  0  0  0  0  0
   -1.8787   -2.7510    1.6517 H   0  0  0  0  0  0  0  0  0  0  0  0
   -3.6150   -0.3364    0.5607 H   0  0  0  0  0  0  0  0  0  0  0  0
    1.6615    1.9697    4.0697 H   0  0  0  0  0  0  0  0  0  0  0  0
   -0.4224   -2.8808   -2.6093 H   0  0  0  0  0  0  0  0  0  0  0  0
  1  2  1  0
  1  7  1  0
  1 11  1  0
  1 13  1  1
  2  3  1  0
  2  8  1  0
  2 14  1  1
  3  4  1  0
  3  9  1  0
  3 15  1  6
  4  5  1  0
  4 10  1  0
  4 16  1  1
  5  6  1  0
  5 11  1  0
  5 17  1  6
  6 12  1  0
  6 18  1  1
  6 19  1  0
  9 20  1  0
 10 26  1  0
 21 22  1  0
 21 26  1  0
 21 27  1  0
 21 32  1  1
 22 23  1  0
 22 28  1  0
 22 33  1  6
 23 24  1  0
 23 29  1  0
 23 34  1  6
 24 25  1  0
 24 30  1  0
 24 35  1  6
 25 31  1  0
 25 36  1  1
 25 37  1  0
 26 30  1  0
 26 38  1  1
 27 39  1  0
 28 40  1  0
 29 41  1  0
  7 42  1  0
  8 43  1  0
 12 44  1  0
 31 45  1  0
M  END
$$$$
GLUCANASE
     RDKit          3D

 45 46  0  0  0  0  0  0  0  0999 V2000
   -1.9965   -0.6030    3.0262 C   0  0  1  0  0  0  0  0  0  0  0  0
   -2.5873   -1.0991    1.7295 C   0  0  1  0  0  0  0  0  0  0  0  0
   -2.2389   -0.1621    0.6160 C   0  0  2  0  0  0  0  0  0  0  0  0
   -0.7944    0.2729    0.6112 C   0  0  1  0  0  0  0  0  0  0  0  0
   -0.2207    0.4457    1.9854 C   0  0  1  0  0  0  0  0  0  0  0  0
   -0.4818    1.8627    2.5181 C   0  0  2  0  0  0  0  0  0  0  0  0
   -2.2580   -1.4595    4.0809 O   0  0  0  0  0  0  0  0  0  0  0  0
   -2.2687   -2.4310    1.4628 O   0  0  0  0  0  0  0  0  0  0  0  0
   -3.1139    0.9372    0.7142 O   0  0  0  0  0  0  0  0  0  0  0  0
   -0.0089   -0.4250   -0.2655 O   0  0  0  0  0  0  0  0  0  0  0  0
   -0.6391   -0.4663    2.9169 O   0  0  0  0  0  0  0  0  0  0  0  0
    0.2111    2.0777    3.7071 O   0  0  0  0  0  0  0  0  0  0  0  0
   -2.5472    0.3412    3.2557 H   0  0  0  0  0  0  0  0  0  0  0  0
   -3.6934   -1.0837    1.8648 H   0  0  0  0  0  0  0  0  0  0  0  0
   -2.4796   -0.6541   -0.3488 H   0  0  0  0  0  0  0  0  0  0  0  0
   -0.8255    1.3066    0.1879 H   0  0  0  0  0  0  0  0  0  0  0  0
    0.8890    0.3934    1.9215 H   0  0  0  0  0  0  0  0  0  0  0  0
   -1.5494    2.0426    2.7271 H   0  0  0  0  0  0  0  0  0  0  0  0
   -0.0539    2.5953    1.7933 H   0  0  0  0  0  0  0  0  0  0  0  0
   -3.7043    0.8859    1.5087 H   0  0  0  0  0  0  0  0  0  0  0  0
    2.0321    0.1990   -1.1385 C   0  0  2  0  0  0  0  0  0  0  0  0
    2.8123    0.4615   -2.3802 C   0  0  2  0  0  0  0  0  0  0  0  0
    2.1781   -0.0177   -3.6562 C   0  0  1  0  0  0  0  0  0  0  0  0
    0.7160    0.3494   -3.5964 C   0  0  1  0  0  0  0  0  0  0  0  0
    0.0839   -0.0070   -4.9360 C   0  0  2  0  0  0  0  0  0  0  0  0
    0.5172    0.1917   -1.3462 C   0  0  1  0  0  0  0  0  0  0  0  0
    2.3188    1.2603   -0.2636 O   0  0  0  0  0  0  0  0  0  0  0  0
    4.0503   -0.1733   -2.2643 O   0  0  0  0  0  0  0  0  0  0  0  0
    2.8456    0.5919   -4.6990 O   0  0  0  0  0  0  0  0  0  0  0  0
    0.1750   -0.3666   -2.5678 O   0  0  0  0  0  0  0  0  0  0  0  0
    0.2694   -1.3560   -5.2206 O   0  0  0  0  0  0  0  0  0  0  0  0
    2.3416   -0.7598   -0.6702 H   0  0  0  0  0  0  0  0  0  0  0  0
    3.0442    1.5594   -2.5001 H   0  0  0  0  0  0  0  0  0  0  0  0
    2.3412   -1.1062   -3.7218 H   0  0  0  0  0  0  0  0  0  0  0  0
    0.6706    1.4406   -3.4246 H   0  0  0  0  0  0  0  0  0  0  0  0
    0.5944    0.5791   -5.7331 H   0  0  0  0  0  0  0  0  0  0  0  0
   -0.9942    0.2594   -4.9553 H   0  0  0  0  0  0  0  0  0  0  0  0
    0.2355    1.2676   -1.4075 H   0  0  0  0  0  0  0  0  0  0  0  0
    1.6420    1.9656   -0.4219 H   0  0  0  0  0  0  0  0  0  0  0  0
    4.0406   -0.9740   -1.6987 H   0  0  0  0  0  0  0  0  0  0  0  0
    3.5715    0.0554   -5.0645 H   0  0  0  0  0  0  0  0  0  0  0  0
   -2.3606   -2.4066    3.8388 H   0  0  0  0  0  0  0  0  0  0  0  0
   -2.0184   -2.5403    0.4910 H   0  0  0  0  0  0  0  0  0  0  0  0
    0.4054    1.2001    4.1460 H   0  0  0  0  0  0  0  0  0  0  0  0
    0.5331   -1.8888   -4.4355 H   0  0  0  0  0  0  0  0  0  0  0  0
  1  2  1  0
  1  7  1  0
  1 11  1  0
  1 13  1  1
  2  3  1  0
  2  8  1  0
  2 14  1  1
  3  4  1  0
  3  9  1  0
  3 15  1  6
  4  5  1  0
  4 10  1  0
  4 16  1  6
  5  6  1  0
  5 11  1  0
  5 17  1  6
  6 12  1  0
  6 18  1  1
  6 19  1  0
  9 20  1  0
 10 26  1  0
 21 22  1  0
 21 26  1  0
 21 27  1  0
 21 32  1  1
 22 23  1  0
 22 28  1  0
 22 33  1  6
 23 24  1  0
 23 29  1  0
 23 34  1  6
 24 25  1  0
 24 30  1  0
 24 35  1  1
 25 31  1  0
 25 36  1  6
 25 37  1  0
 26 30  1  0
 26 38  1  6
 27 39  1  0
 28 40  1  0
 29 41  1  0
  7 42  1  0
  8 43  1  0
 12 44  1  0
 31 45  1  0
M  END
$$$$
GLUCANASE
     RDKit          3D

 45 46  0  0  0  0  0  0  0  0999 V2000
    3.4023   -0.2617    2.7977 C   0  0  1  0  0  0  0  0  0  0  0  0
    2.6059   -1.4850    2.4696 C   0  0  1  0  0  0  0  0  0  0  0  0
    1.9531   -1.4788    1.1307 C   0  0  2  0  0  0  0  0  0  0  0  0
    1.3365   -0.0943    0.8974 C   0  0  1  0  0  0  0  0  0  0  0  0
    2.5225    0.8367    0.9548 C   0  0  1  0  0  0  0  0  0  0  0  0
    2.2007    2.2288    0.4958 C   0  0  2  0  0  0  0  0  0  0  0  0
    4.7328   -0.4666    2.4802 O   0  0  0  0  0  0  0  0  0  0  0  0
    3.4740   -2.6007    2.5006 O   0  0  0  0  0  0  0  0  0  0  0  0
    1.0488   -2.5024    1.0384 O   0  0  0  0  0  0  0  0  0  0  0  0
    0.6683   -0.1144   -0.3018 O   0  0  0  0  0  0  0  0  0  0  0  0
    2.8882    0.9028    2.2943 O   0  0  0  0  0  0  0  0  0  0  0  0
    1.1757    2.8217    1.1868 O   0  0  0  0  0  0  0  0  0  0  0  0
    3.3538   -0.1619    3.9187 H   0  0  0  0  0  0  0  0  0  0  0  0
    1.8340   -1.6998    3.2507 H   0  0  0  0  0  0  0  0  0  0  0  0
    2.7410   -1.5713    0.3474 H   0  0  0  0  0  0  0  0  0  0  0  0
    0.7052    0.1483    1.7667 H   0  0  0  0  0  0  0  0  0  0  0  0
    3.3384    0.4304    0.3573 H   0  0  0  0  0  0  0  0  0  0  0  0
    2.1040    2.2191   -0.5996 H   0  0  0  0  0  0  0  0  0  0  0  0
    3.1278    2.8347    0.6973 H   0  0  0  0  0  0  0  0  0  0  0  0
    1.0672   -2.8182    0.0817 H   0  0  0  0  0  0  0  0  0  0  0  0
   -1.1119    1.4140   -0.9287 C   0  0  2  0  0  0  0  0  0  0  0  0
   -1.9038    1.1444   -2.1743 C   0  0  2  0  0  0  0  0  0  0  0  0
   -2.9375    0.0643   -2.0415 C   0  0  1  0  0  0  0  0  0  0  0  0
   -2.7635   -0.6818   -0.7584 C   0  0  1  0  0  0  0  0  0  0  0  0
   -3.4497   -2.0306   -0.9055 C   0  0  2  0  0  0  0  0  0  0  0  0
   -0.6919    0.1779   -0.1925 C   0  0  1  0  0  0  0  0  0  0  0  0
   -1.8221    2.2861   -0.1042 O   0  0  0  0  0  0  0  0  0  0  0  0
   -1.0186    0.8993   -3.2379 O   0  0  0  0  0  0  0  0  0  0  0  0
   -4.2417    0.6140   -2.0244 O   0  0  0  0  0  0  0  0  0  0  0  0
   -1.4253   -0.9417   -0.5267 O   0  0  0  0  0  0  0  0  0  0  0  0
   -2.9300   -2.7585   -1.9497 O   0  0  0  0  0  0  0  0  0  0  0  0
   -0.1945    1.9555   -1.2386 H   0  0  0  0  0  0  0  0  0  0  0  0
   -2.4352    2.0769   -2.4595 H   0  0  0  0  0  0  0  0  0  0  0  0
   -2.9463   -0.6219   -2.9245 H   0  0  0  0  0  0  0  0  0  0  0  0
   -3.2439   -0.1161    0.0531 H   0  0  0  0  0  0  0  0  0  0  0  0
   -4.5358   -1.8995   -1.0290 H   0  0  0  0  0  0  0  0  0  0  0  0
   -3.2976   -2.6481    0.0258 H   0  0  0  0  0  0  0  0  0  0  0  0
   -0.8793    0.3574    0.8875 H   0  0  0  0  0  0  0  0  0  0  0  0
   -2.2706    2.9692   -0.6630 H   0  0  0  0  0  0  0  0  0  0  0  0
   -1.1099   -0.0045   -3.6116 H   0  0  0  0  0  0  0  0  0  0  0  0
   -4.8884   -0.1149   -1.9566 H   0  0  0  0  0  0  0  0  0  0  0  0
    4.8172   -0.9074    1.6150 H   0  0  0  0  0  0  0  0  0  0  0  0
    2.9430   -3.3428    2.1161 H   0  0  0  0  0  0  0  0  0  0  0  0
    1.3365    3.8025    1.2092 H   0  0  0  0  0  0  0  0  0  0  0  0
   -2.4471   -3.5728   -1.6735 H   0  0  0  0  0  0  0  0  0  0  0  0
  1  2  1  0
  1  7  1  0
  1 11  1  0
  1 13  1  1
  2  3  1  0
  2  8  1  0
  2 14  1  1
  3  4  1  0
  3  9  1  0
  3 15  1  6
  4  5  1  0
  4 10  1  0
  4 16  1  1
  5  6  1  0
  5 11  1  0
  5 17  1  6
  6 12  1  0
  6 18  1  6
  6 19  1  0
  9 20  1  0
 10 26  1  0
 21 22  1  0
 21 26  1  0
 21 27  1  0
 21 32  1  6
 22 23  1  0
 22 28  1  0
 22 33  1  6
 23 24  1  0
 23 29  1  0
 23 34  1  6
 24 25  1  0
 24 30  1  0
 24 35  1  1
 25 31  1  0
 25 36  1  6
 25 37  1  0
 26 30  1  0
 26 38  1  1
 27 39  1  0
 28 40  1  0
 29 41  1  0
  7 42  1  0
  8 43  1  0
 12 44  1  0
 31 45  1  0
M  END
$$$$
GLUCANASE
     RDKit          3D

 45 46  0  0  0  0  0  0  0  0999 V2000
    3.3735   -2.4493   -1.2453 C   0  0  1  0  0  0  0  0  0  0  0  0
    3.6088   -1.9554    0.1490 C   0  0  1  0  0  0  0  0  0  0  0  0
    2.3153   -1.6072    0.8497 C   0  0  2  0  0  0  0  0  0  0  0  0
    1.5418   -0.5896    0.0414 C   0  0  1  0  0  0  0  0  0  0  0  0
    1.7112   -0.8238   -1.4511 C   0  0  1  0  0  0  0  0  0  0  0  0
    2.5037    0.2597   -2.1304 C   0  0  2  0  0  0  0  0  0  0  0  0
    3.3690   -3.8569   -1.1999 O   0  0  0  0  0  0  0  0  0  0  0  0
    4.2364   -2.9481    0.9016 O   0  0  0  0  0  0  0  0  0  0  0  0
    2.6774   -1.0359    2.0883 O   0  0  0  0  0  0  0  0  0  0  0  0
    0.2033   -0.5953    0.4155 O   0  0  0  0  0  0  0  0  0  0  0  0
    2.1457   -2.0971   -1.7642 O   0  0  0  0  0  0  0  0  0  0  0  0
    2.3771    0.0732   -3.4959 O   0  0  0  0  0  0  0  0  0  0  0  0
    4.2234   -2.1687   -1.9012 H   0  0  0  0  0  0  0  0  0  0  0  0
    4.2887   -1.0803    0.2009 H   0  0  0  0  0  0  0  0  0  0  0  0
    1.7139   -2.5061    1.0927 H   0  0  0  0  0  0  0  0  0  0  0  0
    2.0331    0.3827    0.2385 H   0  0  0  0  0  0  0  0  0  0  0  0
    0.6930   -0.7503   -1.8911 H   0  0  0  0  0  0  0  0  0  0  0  0
    3.5518    0.3147   -1.7890 H   0  0  0  0  0  0  0  0  0  0  0  0
    2.0183    1.2227   -1.8865 H   0  0  0  0  0  0  0  0  0  0  0  0
    3.4281   -0.4143    1.8523 H   0  0  0  0  0  0  0  0  0  0  0  0
   -1.1642    1.3933    0.1633 C   0  0  2  0  0  0  0  0  0  0  0  0
   -1.2234    2.8025    0.7070 C   0  0  2  0  0  0  0  0  0  0  0  0
   -0.9768    2.8328    2.1771 C   0  0  1  0  0  0  0  0  0  0  0  0
   -1.0317    1.5179    2.8743 C   0  0  1  0  0  0  0  0  0  0  0  0
   -2.4521    1.1710    3.3120 C   0  0  2  0  0  0  0  0  0  0  0  0
   -0.1071    0.6530    0.9333 C   0  0  1  0  0  0  0  0  0  0  0  0
   -0.7302    1.4857   -1.1591 O   0  0  0  0  0  0  0  0  0  0  0  0
   -2.4049    3.4409    0.3388 O   0  0  0  0  0  0  0  0  0  0  0  0
    0.2429    3.4603    2.4839 O   0  0  0  0  0  0  0  0  0  0  0  0
   -0.4073    0.4711    2.2629 O   0  0  0  0  0  0  0  0  0  0  0  0
   -2.4763    0.1243    4.2028 O   0  0  0  0  0  0  0  0  0  0  0  0
   -2.1495    0.8867    0.1895 H   0  0  0  0  0  0  0  0  0  0  0  0
   -0.4032    3.3819    0.2116 H   0  0  0  0  0  0  0  0  0  0  0  0
   -1.7615    3.4755    2.6746 H   0  0  0  0  0  0  0  0  0  0  0  0
   -0.4807    1.6710    3.8495 H   0  0  0  0  0  0  0  0  0  0  0  0
   -3.0265    0.8494    2.4228 H   0  0  0  0  0  0  0  0  0  0  0  0
   -2.9270    2.0768    3.7329 H   0  0  0  0  0  0  0  0  0  0  0  0
    0.8032    1.2798    0.8935 H   0  0  0  0  0  0  0  0  0  0  0  0
   -1.3555    1.0849   -1.8040 H   0  0  0  0  0  0  0  0  0  0  0  0
   -2.5442    3.3040   -0.6269 H   0  0  0  0  0  0  0  0  0  0  0  0
    0.3511    4.2619    1.9073 H   0  0  0  0  0  0  0  0  0  0  0  0
    2.4714   -4.1312   -0.8674 H   0  0  0  0  0  0  0  0  0  0  0  0
    4.0373   -2.8783    1.8648 H   0  0  0  0  0  0  0  0  0  0  0  0
    3.2327    0.4168   -3.9009 H   0  0  0  0  0  0  0  0  0  0  0  0
   -1.6054   -0.2953    4.3965 H   0  0  0  0  0  0  0  0  0  0  0  0
  1  2  1  0
  1  7  1  0
  1 11  1  0
  1 13  1  6
  2  3  1  0
  2  8  1  0
  2 14  1  6
  3  4  1  0
  3  9  1  0
  3 15  1  1
  4  5  1  0
  4 10  1  0
  4 16  1  6
  5  6  1  0
  5 11  1  0
  5 17  1  6
  6 12  1  0
  6 18  1  1
  6 19  1  0
  9 20  1  0
 10 26  1  0
 21 22  1  0
 21 26  1  0
 21 27  1  0
 21 32  1  6
 22 23  1  0
 22 28  1  0
 22 33  1  6
 23 24  1  0
 23 29  1  0
 23 34  1  1
 24 25  1  0
 24 30  1  0
 24 35  1  1
 25 31  1  0
 25 36  1  6
 25 37  1  0
 26 30  1  0
 26 38  1  1
 27 39  1  0
 28 40  1  0
 29 41  1  0
  7 42  1  0
  8 43  1  0
 12 44  1  0
 31 45  1  0
M  END
$$$$
GLUCANASE
     RDKit          3D

 45 46  0  0  0  0  0  0  0  0999 V2000
    1.5584   -1.2154    1.7376 C   0  0  1  0  0  0  0  0  0  0  0  0
    0.9614    0.0701    2.1297 C   0  0  1  0  0  0  0  0  0  0  0  0
    0.9604    1.1813    1.1372 C   0  0  2  0  0  0  0  0  0  0  0  0
    1.1335    0.5749   -0.2407 C   0  0  1  0  0  0  0  0  0  0  0  0
    2.3912   -0.2240   -0.2080 C   0  0  1  0  0  0  0  0  0  0  0  0
    3.6371    0.5569    0.0606 C   0  0  2  0  0  0  0  0  0  0  0  0
    0.5986   -2.2489    1.6224 O   0  0  0  0  0  0  0  0  0  0  0  0
   -0.3787   -0.1618    2.5080 O   0  0  0  0  0  0  0  0  0  0  0  0
    1.8849    2.1781    1.4207 O   0  0  0  0  0  0  0  0  0  0  0  0
    0.0716   -0.3049   -0.3841 O   0  0  0  0  0  0  0  0  0  0  0  0
    2.3690   -1.2756    0.6578 O   0  0  0  0  0  0  0  0  0  0  0  0
    3.8357    1.6640   -0.7208 O   0  0  0  0  0  0  0  0  0  0  0  0
    2.1807   -1.5754    2.6062 H   0  0  0  0  0  0  0  0  0  0  0  0
    1.4221    0.4991    3.0668 H   0  0  0  0  0  0  0  0  0  0  0  0
   -0.0342    1.7149    1.1110 H   0  0  0  0  0  0  0  0  0  0  0  0
    1.1716    1.3159   -1.0551 H   0  0  0  0  0  0  0  0  0  0  0  0
    2.5036   -0.6666   -1.2407 H   0  0  0  0  0  0  0  0  0  0  0  0
    4.4978   -0.1338   -0.1579 H   0  0  0  0  0  0  0  0  0  0  0  0
    3.7435    0.7882    1.1412 H   0  0  0  0  0  0  0  0  0  0  0  0
    1.4850    2.9936    1.7954 H   0  0  0  0  0  0  0  0  0  0  0  0
   -0.5577   -1.2418   -2.3926 C   0  0  2  0  0  0  0  0  0  0  0  0
   -1.7807   -1.6391   -3.1604 C   0  0  2  0  0  0  0  0  0  0  0  0
   -2.9429   -0.6991   -2.9556 C   0  0  1  0  0  0  0  0  0  0  0  0
   -3.0295   -0.3342   -1.5166 C   0  0  1  0  0  0  0  0  0  0  0  0
   -3.3688   -1.5007   -0.6199 C   0  0  2  0  0  0  0  0  0  0  0  0
   -0.7011   -0.0606   -1.5104 C   0  0  1  0  0  0  0  0  0  0  0  0
    0.4649   -0.9950   -3.3416 O   0  0  0  0  0  0  0  0  0  0  0  0
   -2.2358   -2.9087   -2.7846 O   0  0  0  0  0  0  0  0  0  0  0  0
   -2.6070    0.4788   -3.6511 O   0  0  0  0  0  0  0  0  0  0  0  0
   -1.9268    0.3553   -1.1405 O   0  0  0  0  0  0  0  0  0  0  0  0
   -3.6082   -1.0888    0.6896 O   0  0  0  0  0  0  0  0  0  0  0  0
   -0.2032   -2.1459   -1.8475 H   0  0  0  0  0  0  0  0  0  0  0  0
   -1.6057   -1.6799   -4.2565 H   0  0  0  0  0  0  0  0  0  0  0  0
   -3.8442   -1.1362   -3.3899 H   0  0  0  0  0  0  0  0  0  0  0  0
   -3.9038    0.3681   -1.4323 H   0  0  0  0  0  0  0  0  0  0  0  0
   -2.4835   -2.1736   -0.5775 H   0  0  0  0  0  0  0  0  0  0  0  0
   -4.2518   -2.0548   -0.9514 H   0  0  0  0  0  0  0  0  0  0  0  0
   -0.2011    0.8306   -1.9939 H   0  0  0  0  0  0  0  0  0  0  0  0
    0.4137   -1.7420   -4.0049 H   0  0  0  0  0  0  0  0  0  0  0  0
   -2.7734   -3.3648   -3.4550 H   0  0  0  0  0  0  0  0  0  0  0  0
   -2.8518    1.2871   -3.1361 H   0  0  0  0  0  0  0  0  0  0  0  0
    1.0156   -3.1222    1.5572 H   0  0  0  0  0  0  0  0  0  0  0  0
   -0.8505   -0.7676    1.9136 H   0  0  0  0  0  0  0  0  0  0  0  0
    3.0567    2.0944   -1.0981 H   0  0  0  0  0  0  0  0  0  0  0  0
   -3.1844   -0.1986    0.8750 H   0  0  0  0  0  0  0  0  0  0  0  0
  1  2  1  0
  1  7  1  0
  1 11  1  0
  1 13  1  1
  2  3  1  0
  2  8  1  0
  2 14  1  1
  3  4  1  0
  3  9  1  0
  3 15  1  6
  4  5  1  0
  4 10  1  0
  4 16  1  6
  5  6  1  0
  5 11  1  0
  5 17  1  6
  6 12  1  0
  6 18  1  6
  6 19  1  0
  9 20  1  0
 10 26  1  0
 21 22  1  0
 21 26  1  0
 21 27  1  0
 21 32  1  1
 22 23  1  0
 22 28  1  0
 22 33  1  6
 23 24  1  0
 23 29  1  0
 23 34  1  6
 24 25  1  0
 24 30  1  0
 24 35  1  6
 25 31  1  0
 25 36  1  1
 25 37  1  0
 26 30  1  0
 26 38  1  6
 27 39  1  0
 28 40  1  0
 29 41  1  0
  7 42  1  0
  8 43  1  0
 12 44  1  0
 31 45  1  0
M  END
$$$$
GLUCANASE
     RDKit          3D

 45 46  0  0  0  0  0  0  0  0999 V2000
    0.2817    1.0598   -3.3986 C   0  0  1  0  0  0  0  0  0  0  0  0
    1.2599    1.4955   -2.3309 C   0  0  1  0  0  0  0  0  0  0  0  0
    1.1890    0.4799   -1.2093 C   0  0  2  0  0  0  0  0  0  0  0  0
   -0.2402    0.0445   -0.9422 C   0  0  1  0  0  0  0  0  0  0  0  0
   -0.7072   -0.6478   -2.1909 C   0  0  1  0  0  0  0  0  0  0  0  0
   -2.1638   -0.3954   -2.4928 C   0  0  2  0  0  0  0  0  0  0  0  0
    0.9071    1.2765   -4.6270 O   0  0  0  0  0  0  0  0  0  0  0  0
    2.5536    1.5550   -2.8417 O   0  0  0  0  0  0  0  0  0  0  0  0
    1.8602    0.8723   -0.0771 O   0  0  0  0  0  0  0  0  0  0  0  0
   -0.1516   -0.8125    0.1565 O   0  0  0  0  0  0  0  0  0  0  0  0
    0.0018   -0.2972   -3.3292 O   0  0  0  0  0  0  0  0  0  0  0  0
   -2.9965   -0.7002   -1.4461 O   0  0  0  0  0  0  0  0  0  0  0  0
   -0.6493    1.6820   -3.3377 H   0  0  0  0  0  0  0  0  0  0  0  0
    0.9451    2.4655   -1.9127 H   0  0  0  0  0  0  0  0  0  0  0  0
    1.6956   -0.4385   -1.6297 H   0  0  0  0  0  0  0  0  0  0  0  0
   -0.8794    0.9241   -0.6851 H   0  0  0  0  0  0  0  0  0  0  0  0
   -0.5615   -1.7393   -2.0388 H   0  0  0  0  0  0  0  0  0  0  0  0
   -2.4638   -0.9626   -3.3975 H   0  0  0  0  0  0  0  0  0  0  0  0
   -2.3351    0.6727   -2.7415 H   0  0  0  0  0  0  0  0  0  0  0  0
    2.1933    0.0437    0.3786 H   0  0  0  0  0  0  0  0  0  0  0  0
   -1.9599   -1.3129    1.6154 C   0  0  2  0  0  0  0  0  0  0  0  0
   -1.7290   -2.1608    2.8349 C   0  0  2  0  0  0  0  0  0  0  0  0
   -0.9364   -1.4916    3.9213 C   0  0  1  0  0  0  0  0  0  0  0  0
   -0.7760   -0.0450    3.5221 C   0  0  1  0  0  0  0  0  0  0  0  0
   -0.1259    0.7728    4.6148 C   0  0  2  0  0  0  0  0  0  0  0  0
   -0.8517   -0.3842    1.2642 C   0  0  1  0  0  0  0  0  0  0  0  0
   -3.1927   -0.6649    1.7007 O   0  0  0  0  0  0  0  0  0  0  0  0
   -1.1835   -3.4137    2.5301 O   0  0  0  0  0  0  0  0  0  0  0  0
   -1.5275   -1.6260    5.1731 O   0  0  0  0  0  0  0  0  0  0  0  0
   -0.0488   -0.0333    2.3446 O   0  0  0  0  0  0  0  0  0  0  0  0
   -0.0096    2.0962    4.1967 O   0  0  0  0  0  0  0  0  0  0  0  0
   -2.0738   -2.0485    0.7658 H   0  0  0  0  0  0  0  0  0  0  0  0
   -2.7433   -2.3881    3.2683 H   0  0  0  0  0  0  0  0  0  0  0  0
    0.0829   -1.9357    3.9542 H   0  0  0  0  0  0  0  0  0  0  0  0
   -1.7824    0.3815    3.3663 H   0  0  0  0  0  0  0  0  0  0  0  0
    0.8506    0.3555    4.9234 H   0  0  0  0  0  0  0  0  0  0  0  0
   -0.8196    0.7673    5.4822 H   0  0  0  0  0  0  0  0  0  0  0  0
   -1.3253    0.5913    0.9547 H   0  0  0  0  0  0  0  0  0  0  0  0
   -3.9191   -1.1323    1.2476 H   0  0  0  0  0  0  0  0  0  0  0  0
   -0.1974   -3.3554    2.4806 H   0  0  0  0  0  0  0  0  0  0  0  0
   -0.8887   -1.5789    5.9109 H   0  0  0  0  0  0  0  0  0  0  0  0
    1.6901    1.8676   -4.5709 H   0  0  0  0  0  0  0  0  0  0  0  0
    3.1626    1.0387   -2.2574 H   0  0  0  0  0  0  0  0  0  0  0  0
   -3.6368   -1.4000   -1.7149 H   0  0  0  0  0  0  0  0  0  0  0  0
   -0.7264    2.3709    3.5988 H   0  0  0  0  0  0  0  0  0  0  0  0
  1  2  1  0
  1  7  1  0
  1 11  1  0
  1 13  1  6
  2  3  1  0
  2  8  1  0
  2 14  1  1
  3  4  1  0
  3  9  1  0
  3 15  1  6
  4  5  1  0
  4 10  1  0
  4 16  1  1
  5  6  1  0
  5 11  1  0
  5 17  1  1
  6 12  1  0
  6 18  1  6
  6 19  1  0
  9 20  1  0
 10 26  1  0
 21 22  1  0
 21 26  1  0
 21 27  1  0
 21 32  1  6
 22 23  1  0
 22 28  1  0
 22 33  1  1
 23 24  1  0
 23 29  1  0
 23 34  1  1
 24 25  1  0
 24 30  1  0
 24 35  1  6
 25 31  1  0
 25 36  1  1
 25 37  1  0
 26 30  1  0
 26 38  1  6
 27 39  1  0
 28 40  1  0
 29 41  1  0
  7 42  1  0
  8 43  1  0
 12 44  1  0
 31 45  1  0
M  END
$$$$
