GLUCANASE
     RDKit          3D

 24 24  0  0  0  0  0  0  0  0999 V2000
   -1.0309    0.2742   -0.9326 C   0  0  2  0  0  0  0  0  0  0  0  0
    0.4192   -0.0596   -0.7978 C   0  0  2  0  0  0  0  0  0  0  0  0
    0.6351   -0.5034    0.6379 C   0  0  1  0  0  0  0  0  0  0  0  0
   -0.5680   -1.3659    0.9510 C   0  0  1  0  0  0  0  0  0  0  0  0
   -0.2636   -2.3197    2.0762 C   0  0  1  0  0  0  0  0  0  0  0  0
   -1.7485    0.5063    0.3701 C   0  0  2  0  0  0  0  0  0  0  0  0
   -1.4702    1.7669    0.9082 O   0  0  0  0  0  0  0  0  0  0  0  0
   -1.7370   -0.6374   -1.7165 O   0  0  0  0  0  0  0  0  0  0  0  0
    1.2575    0.9935   -1.1470 O   0  0  0  0  0  0  0  0  0  0  0  0
    1.8380   -1.1545    0.8400 O   0  0  0  0  0  0  0  0  0  0  0  0
   -1.5744   -0.4712    1.3110 O   0  0  0  0  0  0  0  0  0  0  0  0
   -1.3556   -3.0696    2.4442 O   0  0  0  0  0  0  0  0  0  0  0  0
   -1.0807    1.2461   -1.4930 H   0  0  0  0  0  0  0  0  0  0  0  0
    0.6686   -0.9422   -1.4428 H   0  0  0  0  0  0  0  0  0  0  0  0
    0.6527    0.3998    1.3047 H   0  0  0  0  0  0  0  0  0  0  0  0
   -0.9062   -1.9437    0.0666 H   0  0  0  0  0  0  0  0  0  0  0  0
    0.5098   -3.0389    1.7121 H   0  0  0  0  0  0  0  0  0  0  0  0
    0.1718   -1.7566    2.9050 H   0  0  0  0  0  0  0  0  0  0  0  0
   -2.8481    0.4993    0.1088 H   0  0  0  0  0  0  0  0  0  0  0  0
    2.4368   -0.6955    1.4703 H   0  0  0  0  0  0  0  0  0  0  0  0
   -2.1151   -2.8324    1.8570 H   0  0  0  0  0  0  0  0  0  0  0  0
   -2.0644    2.4805    0.5623 H   0  0  0  0  0  0  0  0  0  0  0  0
   -2.6614   -0.3004   -1.7779 H   0  0  0  0  0  0  0  0  0  0  0  0
    1.3712    0.9432   -2.1306 H   0  0  0  0  0  0  0  0  0  0  0  0
  1  2  1  0
  1  6  1  0
  1  8  1  0
  1 13  1  6
  2  3  1  0
  2  9  1  0
  2 14  1  6
  3  4  1  0
  3 10  1  0
  3 15  1  1
  4  5  1  0
  4 11  1  0
  4 16  1  6
  5 12  1  0
  5 17  1  6
  5 18  1  0
  6  7  1  0
  6 11  1  0
  6 19  1  6
 10 20  1  0
 12 21  1  0
  7 22  1  0
  8 23  1  0
  9 24  1  0
M  END
$$$$
GLUCANASE
     RDKit          3D

 24 24  0  0  0  0  0  0  0  0999 V2000
    0.0679    2.1427    0.9427 C   0  0  2  0  0  0  0  0  0  0  0  0
   -1.0991    1.1724    0.9150 C   0  0  2  0  0  0  0  0  0  0  0  0
   -0.8526    0.3286   -0.3213 C   0  0  1  0  0  0  0  0  0  0  0  0
    0.4710   -0.3950   -0.0854 C   0  0  1  0  0  0  0  0  0  0  0  0
    0.8023   -1.2143   -1.3239 C   0  0  1  0  0  0  0  0  0  0  0  0
    1.2706    1.2785    1.2587 C   0  0  2  0  0  0  0  0  0  0  0  0
    2.3774    1.9867    1.6367 O   0  0  0  0  0  0  0  0  0  0  0  0
   -0.1065    3.1753    1.8218 O   0  0  0  0  0  0  0  0  0  0  0  0
   -2.3328    1.8025    0.8805 O   0  0  0  0  0  0  0  0  0  0  0  0
   -1.8678   -0.5664   -0.5132 O   0  0  0  0  0  0  0  0  0  0  0  0
    1.5004    0.5187    0.0891 O   0  0  0  0  0  0  0  0  0  0  0  0
   -0.1831   -2.1629   -1.5769 O   0  0  0  0  0  0  0  0  0  0  0  0
    0.2215    2.5327   -0.1050 H   0  0  0  0  0  0  0  0  0  0  0  0
   -0.9896    0.4810    1.7905 H   0  0  0  0  0  0  0  0  0  0  0  0
   -0.7141    1.0413   -1.1647 H   0  0  0  0  0  0  0  0  0  0  0  0
    0.3930   -1.0774    0.7648 H   0  0  0  0  0  0  0  0  0  0  0  0
    0.9012   -0.5408   -2.2202 H   0  0  0  0  0  0  0  0  0  0  0  0
    1.7770   -1.7063   -1.1974 H   0  0  0  0  0  0  0  0  0  0  0  0
    0.9658    0.5098    2.0272 H   0  0  0  0  0  0  0  0  0  0  0  0
   -2.6346   -0.0375   -0.9026 H   0  0  0  0  0  0  0  0  0  0  0  0
   -0.5490   -2.4864   -0.7129 H   0  0  0  0  0  0  0  0  0  0  0  0
    3.2174    1.6971    1.2036 H   0  0  0  0  0  0  0  0  0  0  0  0
    0.0131    4.0498    1.3325 H   0  0  0  0  0  0  0  0  0  0  0  0
   -2.7005    1.7532    1.8020 H   0  0  0  0  0  0  0  0  0  0  0  0
  1  2  1  0
  1  6  1  0
  1  8  1  0
  1 13  1  6
  2  3  1  0
  2  9  1  0
  2 14  1  1
  3  4  1  0
  3 10  1  0
  3 15  1  6
  4  5  1  0
  4 11  1  0
  4 16  1  1
  5 12  1  0
  5 17  1  6
  5 18  1  0
  6  7  1  0
  6 11  1  0
  6 19  1  1
 10 20  1  0
 12 21  1  0
  7 22  1  0
  8 23  1  0
  9 24  1  0
M  END
$$$$
GLUCANASE
     RDKit          3D

 24 24  0  0  0  0  0  0  0  0999 V2000
    1.7229   -0.3469   -0.7751 C   0  0  2  0  0  0  0  0  0  0  0  0
    1.8229    0.8995    0.0531 C   0  0  2  0  0  0  0  0  0  0  0  0
    0.5792    1.1429    0.8790 C   0  0  1  0  0  0  0  0  0  0  0  0
   -0.4393    0.0607    0.6102 C   0  0  1  0  0  0  0  0  0  0  0  0
   -1.7154    0.3421    1.3488 C   0  0  1  0  0  0  0  0  0  0  0  0
    0.4032   -0.3394   -1.5068 C   0  0  2  0  0  0  0  0  0  0  0  0
    0.5823    0.4994   -2.6150 O   0  0  0  0  0  0  0  0  0  0  0  0
    1.9504   -1.5218   -0.0777 O   0  0  0  0  0  0  0  0  0  0  0  0
    2.0234    1.9725   -0.7976 O   0  0  0  0  0  0  0  0  0  0  0  0
    0.9247    1.2018    2.2313 O   0  0  0  0  0  0  0  0  0  0  0  0
   -0.6757    0.0312   -0.7513 O   0  0  0  0  0  0  0  0  0  0  0  0
   -1.4024    0.3578    2.7234 O   0  0  0  0  0  0  0  0  0  0  0  0
    2.5395   -0.2860   -1.5426 H   0  0  0  0  0  0  0  0  0  0  0  0
    2.7099    0.8416    0.7197 H   0  0  0  0  0  0  0  0  0  0  0  0
    0.0903    2.1116    0.6171 H   0  0  0  0  0  0  0  0  0  0  0  0
   -0.0951   -0.9354    0.9687 H   0  0  0  0  0  0  0  0  0  0  0  0
   -2.2627    1.2278    1.0235 H   0  0  0  0  0  0  0  0  0  0  0  0
   -2.3814   -0.5603    1.2231 H   0  0  0  0  0  0  0  0  0  0  0  0
    0.2425   -1.3530   -1.9387 H   0  0  0  0  0  0  0  0  0  0  0  0
    1.8129    1.6523    2.2688 H   0  0  0  0  0  0  0  0  0  0  0  0
   -2.0920    0.8568    3.2371 H   0  0  0  0  0  0  0  0  0  0  0  0
   -0.1661    1.1259   -2.7261 H   0  0  0  0  0  0  0  0  0  0  0  0
    2.3136   -1.3712    0.8119 H   0  0  0  0  0  0  0  0  0  0  0  0
    2.7029    1.7745   -1.4939 H   0  0  0  0  0  0  0  0  0  0  0  0
  1  2  1  0
  1  6  1  0
  1  8  1  0
  1 13  1  6
  2  3  1  0
  2  9  1  0
  2 14  1  1
  3  4  1  0
  3 10  1  0
  3 15  1  6
  4  5  1  0
  4 11  1  0
  4 16  1  1
  5 12  1  0
  5 17  1  6
  5 18  1  0
  6  7  1  0
  6 11  1  0
  6 19  1  6
 10 20  1  0
 12 21  1  0
  7 22  1  0
  8 23  1  0
  9 24  1  0
M  END
$$$$
GLUCANASE
     RDKit          3D

 24 24  0  0  0  0  0  0  0  0999 V2000
    1.3334   -1.0232    0.1581 C   0  0  2  0  0  0  0  0  0  0  0  0
    0.1842   -1.8155    0.7632 C   0  0  2  0  0  0  0  0  0  0  0  0
   -0.8067   -0.8001    1.3119 C   0  0  1  0  0  0  0  0  0  0  0  0
   -1.1367    0.2269    0.2705 C   0  0  1  0  0  0  0  0  0  0  0  0
   -2.0302    1.2773    0.9442 C   0  0  1  0  0  0  0  0  0  0  0  0
    0.7146   -0.1475   -0.9130 C   0  0  2  0  0  0  0  0  0  0  0  0
    1.6690    0.3476   -1.7896 O   0  0  0  0  0  0  0  0  0  0  0  0
    2.3004   -1.8802   -0.3759 O   0  0  0  0  0  0  0  0  0  0  0  0
    0.6107   -2.6705    1.7601 O   0  0  0  0  0  0  0  0  0  0  0  0
   -1.9465   -1.4839    1.6600 O   0  0  0  0  0  0  0  0  0  0  0  0
    0.0172    0.8539   -0.2267 O   0  0  0  0  0  0  0  0  0  0  0  0
   -1.3360    1.8677    1.9826 O   0  0  0  0  0  0  0  0  0  0  0  0
    1.8219   -0.4564    0.9588 H   0  0  0  0  0  0  0  0  0  0  0  0
   -0.3051   -2.3378   -0.0870 H   0  0  0  0  0  0  0  0  0  0  0  0
   -0.3082   -0.3155    2.1771 H   0  0  0  0  0  0  0  0  0  0  0  0
   -1.6441   -0.2291   -0.5911 H   0  0  0  0  0  0  0  0  0  0  0  0
   -2.3971    2.0148    0.1882 H   0  0  0  0  0  0  0  0  0  0  0  0
   -2.9157    0.7265    1.3205 H   0  0  0  0  0  0  0  0  0  0  0  0
   -0.0309   -0.7719   -1.4425 H   0  0  0  0  0  0  0  0  0  0  0  0
   -2.7356   -1.2959    1.0902 H   0  0  0  0  0  0  0  0  0  0  0  0
   -1.5426    1.3685    2.8255 H   0  0  0  0  0  0  0  0  0  0  0  0
    1.3521    1.1610   -2.2447 H   0  0  0  0  0  0  0  0  0  0  0  0
    1.8579   -2.5966   -0.8973 H   0  0  0  0  0  0  0  0  0  0  0  0
   -0.2008   -3.2034    2.0123 H   0  0  0  0  0  0  0  0  0  0  0  0
  1  2  1  0
  1  6  1  0
  1  8  1  0
  1 13  1  1
  2  3  1  0
  2  9  1  0
  2 14  1  6
  3  4  1  0
  3 10  1  0
  3 15  1  1
  4  5  1  0
  4 11  1  0
  4 16  1  6
  5 12  1  0
  5 17  1  6
  5 18  1  0
  6  7  1  0
  6 11  1  0
  6 19  1  6
 10 20  1  0
 12 21  1  0
  7 22  1  0
  8 23  1  0
  9 24  1  0
M  END
$$$$
GLUCANASE
     RDKit          3D

 24 24  0  0  0  0  0  0  0  0999 V2000
    0.5208   -0.0528    0.5075 C   0  0  2  0  0  0  0  0  0  0  0  0
    0.2671    0.5850   -0.8471 C   0  0  2  0  0  0  0  0  0  0  0  0
   -1.0507    1.2479   -0.9884 C   0  0  1  0  0  0  0  0  0  0  0  0
   -1.9954    1.1697    0.1555 C   0  0  1  0  0  0  0  0  0  0  0  0
   -3.2244    0.3212   -0.1580 C   0  0  1  0  0  0  0  0  0  0  0  0
   -0.1198    0.9159    1.4833 C   0  0  2  0  0  0  0  0  0  0  0  0
    0.2416    0.7055    2.7973 O   0  0  0  0  0  0  0  0  0  0  0  0
    1.8724   -0.2390    0.7207 O   0  0  0  0  0  0  0  0  0  0  0  0
    0.5351   -0.3693   -1.8510 O   0  0  0  0  0  0  0  0  0  0  0  0
   -0.8893    2.5730   -1.4349 O   0  0  0  0  0  0  0  0  0  0  0  0
   -1.4744    0.6901    1.3331 O   0  0  0  0  0  0  0  0  0  0  0  0
   -2.8921   -1.0221   -0.2988 O   0  0  0  0  0  0  0  0  0  0  0  0
    0.0074   -1.0271    0.5822 H   0  0  0  0  0  0  0  0  0  0  0  0
    1.0766    1.3491   -0.9429 H   0  0  0  0  0  0  0  0  0  0  0  0
   -1.5594    0.7459   -1.8653 H   0  0  0  0  0  0  0  0  0  0  0  0
   -2.3903    2.1875    0.3627 H   0  0  0  0  0  0  0  0  0  0  0  0
   -3.9264    0.4822    0.6949 H   0  0  0  0  0  0  0  0  0  0  0  0
   -3.6916    0.6524   -1.0980 H   0  0  0  0  0  0  0  0  0  0  0  0
    0.1519    1.9409    1.1586 H   0  0  0  0  0  0  0  0  0  0  0  0
   -0.0187    2.9040   -1.0789 H   0  0  0  0  0  0  0  0  0  0  0  0
   -2.0246   -1.1672   -0.7081 H   0  0  0  0  0  0  0  0  0  0  0  0
    0.6864    1.5102    3.2053 H   0  0  0  0  0  0  0  0  0  0  0  0
    2.0957   -1.1749    0.4233 H   0  0  0  0  0  0  0  0  0  0  0  0
    1.5165   -0.5040   -1.9257 H   0  0  0  0  0  0  0  0  0  0  0  0
  1  2  1  0
  1  6  1  0
  1  8  1  0
  1 13  1  6
  2  3  1  0
  2  9  1  0
  2 14  1  6
  3  4  1  0
  3 10  1  0
  3 15  1  6
  4  5  1  0
  4 11  1  0
  4 16  1  1
  5 12  1  0
  5 17  1  1
  5 18  1  0
  6  7  1  0
  6 11  1  0
  6 19  1  6
 10 20  1  0
 12 21  1  0
  7 22  1  0
  8 23  1  0
  9 24  1  0
M  END
$$$$
GLUCANASE
     RDKit          3D

 24 24  0  0  0  0  0  0  0  0999 V2000
    0.5148    0.9146   -0.7558 C   0  0  2  0  0  0  0  0  0  0  0  0
   -0.9340    0.9357   -0.3627 C   0  0  2  0  0  0  0  0  0  0  0  0
   -1.6152   -0.3816   -0.3981 C   0  0  1  0  0  0  0  0  0  0  0  0
   -0.7790   -1.5945   -0.5751 C   0  0  1  0  0  0  0  0  0  0  0  0
   -0.9667   -2.2544   -1.9352 C   0  0  1  0  0  0  0  0  0  0  0  0
    1.0910   -0.2812   -0.0317 C   0  0  2  0  0  0  0  0  0  0  0  0
    2.4533   -0.2944   -0.3461 O   0  0  0  0  0  0  0  0  0  0  0  0
    1.1230    2.0530   -0.2111 O   0  0  0  0  0  0  0  0  0  0  0  0
   -1.5443    1.8978   -1.2002 O   0  0  0  0  0  0  0  0  0  0  0  0
   -2.4558   -0.4558    0.7185 O   0  0  0  0  0  0  0  0  0  0  0  0
    0.5677   -1.4735   -0.3979 O   0  0  0  0  0  0  0  0  0  0  0  0
   -2.2843   -2.4523   -2.2736 O   0  0  0  0  0  0  0  0  0  0  0  0
    0.6726    0.8927   -1.8367 H   0  0  0  0  0  0  0  0  0  0  0  0
   -0.9814    1.3947    0.6501 H   0  0  0  0  0  0  0  0  0  0  0  0
   -2.3292   -0.3328   -1.2715 H   0  0  0  0  0  0  0  0  0  0  0  0
   -1.1377   -2.3545    0.1588 H   0  0  0  0  0  0  0  0  0  0  0  0
   -0.3823   -1.7374   -2.7206 H   0  0  0  0  0  0  0  0  0  0  0  0
   -0.4952   -3.2645   -1.8395 H   0  0  0  0  0  0  0  0  0  0  0  0
    0.9950   -0.1144    1.0418 H   0  0  0  0  0  0  0  0  0  0  0  0
   -3.2657   -0.9618    0.5193 H   0  0  0  0  0  0  0  0  0  0  0  0
   -2.9495   -2.2488   -1.5989 H   0  0  0  0  0  0  0  0  0  0  0  0
    2.4956   -0.4507   -1.3432 H   0  0  0  0  0  0  0  0  0  0  0  0
    0.4653    2.7065    0.1494 H   0  0  0  0  0  0  0  0  0  0  0  0
   -1.3229    1.6563   -2.1307 H   0  0  0  0  0  0  0  0  0  0  0  0
  1  2  1  0
  1  6  1  0
  1  8  1  0
  1 13  1  6
  2  3  1  0
  2  9  1  0
  2 14  1  1
  3  4  1  0
  3 10  1  0
  3 15  1  6
  4  5  1  0
  4 11  1  0
  4 16  1  1
  5 12  1  0
  5 17  1  6
  5 18  1  0
  6  7  1  0
  6 11  1  0
  6 19  1  1
 10 20  1  0
 12 21  1  0
  7 22  1  0
  8 23  1  0
  9 24  1  0
M  END
$$$$
GLUCANASE
     RDKit          3D

 24 24  0  0  0  0  0  0  0  0999 V2000
   -1.0833    1.6374   -0.5375 C   0  0  2  0  0  0  0  0  0  0  0  0
    0.4103    1.4454   -0.5694 C   0  0  2  0  0  0  0  0  0  0  0  0
    0.7198    0.0483   -0.0689 C   0  0  1  0  0  0  0  0  0  0  0  0
   -0.4319   -0.8101   -0.5041 C   0  0  1  0  0  0  0  0  0  0  0  0
   -0.0819   -2.2599   -0.5849 C   0  0  1  0  0  0  0  0  0  0  0  0
   -1.8018    0.7538    0.4381 C   0  0  2  0  0  0  0  0  0  0  0  0
   -1.6213    1.2911    1.7156 O   0  0  0  0  0  0  0  0  0  0  0  0
   -1.6608    1.6500   -1.8069 O   0  0  0  0  0  0  0  0  0  0  0  0
    1.0687    2.3379    0.2596 O   0  0  0  0  0  0  0  0  0  0  0  0
    1.9524   -0.4265   -0.4932 O   0  0  0  0  0  0  0  0  0  0  0  0
   -1.4590   -0.5758    0.4007 O   0  0  0  0  0  0  0  0  0  0  0  0
    0.3402   -2.7901    0.6275 O   0  0  0  0  0  0  0  0  0  0  0  0
   -1.2354    2.6900   -0.1552 H   0  0  0  0  0  0  0  0  0  0  0  0
    0.8090    1.4919   -1.6081 H   0  0  0  0  0  0  0  0  0  0  0  0
    0.7075    0.1390    1.0539 H   0  0  0  0  0  0  0  0  0  0  0  0
   -0.7830   -0.4966   -1.5073 H   0  0  0  0  0  0  0  0  0  0  0  0
   -0.9350   -2.8136   -1.0162 H   0  0  0  0  0  0  0  0  0  0  0  0
    0.7652   -2.3465   -1.3072 H   0  0  0  0  0  0  0  0  0  0  0  0
   -2.8904    0.8106    0.1518 H   0  0  0  0  0  0  0  0  0  0  0  0
    2.3318   -0.9435    0.2856 H   0  0  0  0  0  0  0  0  0  0  0  0
    1.2013   -3.2837    0.5192 H   0  0  0  0  0  0  0  0  0  0  0  0
   -1.5766    2.2743    1.5994 H   0  0  0  0  0  0  0  0  0  0  0  0
   -2.1139    2.4742   -2.0490 H   0  0  0  0  0  0  0  0  0  0  0  0
    1.7248    1.8877    0.8465 H   0  0  0  0  0  0  0  0  0  0  0  0
  1  2  1  0
  1  6  1  0
  1  8  1  0
  1 13  1  1
  2  3  1  0
  2  9  1  0
  2 14  1  6
  3  4  1  0
  3 10  1  0
  3 15  1  1
  4  5  1  0
  4 11  1  0
  4 16  1  6
  5 12  1  0
  5 17  1  6
  5 18  1  0
  6  7  1  0
  6 11  1  0
  6 19  1  6
 10 20  1  0
 12 21  1  0
  7 22  1  0
  8 23  1  0
  9 24  1  0
M  END
$$$$
GLUCANASE
     RDKit          3D

 24 24  0  0  0  0  0  0  0  0999 V2000
   -0.2991    0.1458   -2.8249 C   0  0  2  0  0  0  0  0  0  0  0  0
   -1.5971    0.0043   -2.0401 C   0  0  2  0  0  0  0  0  0  0  0  0
   -1.3171   -0.4056   -0.6013 C   0  0  1  0  0  0  0  0  0  0  0  0
   -0.0535   -1.2029   -0.5926 C   0  0  1  0  0  0  0  0  0  0  0  0
    0.1090   -2.0414    0.6512 C   0  0  1  0  0  0  0  0  0  0  0  0
    0.4352   -1.1684   -2.7870 C   0  0  2  0  0  0  0  0  0  0  0  0
    0.2039   -1.8345   -3.9767 O   0  0  0  0  0  0  0  0  0  0  0  0
    0.5044    1.1718   -2.3181 O   0  0  0  0  0  0  0  0  0  0  0  0
   -2.3817   -0.9268   -2.6937 O   0  0  0  0  0  0  0  0  0  0  0  0
   -1.1305    0.7480    0.1412 O   0  0  0  0  0  0  0  0  0  0  0  0
    0.0184   -1.9749   -1.7243 O   0  0  0  0  0  0  0  0  0  0  0  0
   -0.8658   -3.0180    0.7667 O   0  0  0  0  0  0  0  0  0  0  0  0
   -0.5891    0.4372   -3.8485 H   0  0  0  0  0  0  0  0  0  0  0  0
   -2.1092    0.9810   -2.0712 H   0  0  0  0  0  0  0  0  0  0  0  0
   -2.1935   -0.9682   -0.1959 H   0  0  0  0  0  0  0  0  0  0  0  0
    0.8054   -0.4915   -0.6048 H   0  0  0  0  0  0  0  0  0  0  0  0
    1.1093   -2.4994    0.6636 H   0  0  0  0  0  0  0  0  0  0  0  0
    0.0543   -1.4102    1.5613 H   0  0  0  0  0  0  0  0  0  0  0  0
    1.5212   -0.9462   -2.6817 H   0  0  0  0  0  0  0  0  0  0  0  0
   -1.6561    0.7399    0.9950 H   0  0  0  0  0  0  0  0  0  0  0  0
   -0.8995   -3.2834    1.7253 H   0  0  0  0  0  0  0  0  0  0  0  0
    0.9477   -2.4669   -4.1573 H   0  0  0  0  0  0  0  0  0  0  0  0
    1.4331    0.9355   -2.5683 H   0  0  0  0  0  0  0  0  0  0  0  0
   -3.1350   -1.2786   -2.1483 H   0  0  0  0  0  0  0  0  0  0  0  0
  1  2  1  0
  1  6  1  0
  1  8  1  0
  1 13  1  6
  2  3  1  0
  2  9  1  0
  2 14  1  1
  3  4  1  0
  3 10  1  0
  3 15  1  1
  4  5  1  0
  4 11  1  0
  4 16  1  6
  5 12  1  0
  5 17  1  6
  5 18  1  0
  6  7  1  0
  6 11  1  0
  6 19  1  1
 10 20  1  0
 12 21  1  0
  7 22  1  0
  8 23  1  0
  9 24  1  0
M  END
$$$$
GLUCANASE
     RDKit          3D

 24 24  0  0  0  0  0  0  0  0999 V2000
    1.4204    1.1818   -0.1081 C   0  0  2  0  0  0  0  0  0  0  0  0
    1.0366    1.3565   -1.5711 C   0  0  2  0  0  0  0  0  0  0  0  0
    0.3929    0.0146   -1.9141 C   0  0  1  0  0  0  0  0  0  0  0  0
   -0.9088    0.0207   -1.1909 C   0  0  1  0  0  0  0  0  0  0  0  0
   -1.4463   -1.4012   -1.1785 C   0  0  1  0  0  0  0  0  0  0  0  0
    0.2125    0.8258    0.6908 C   0  0  2  0  0  0  0  0  0  0  0  0
    0.4980   -0.2457    1.5491 O   0  0  0  0  0  0  0  0  0  0  0  0
    2.1253    2.2716    0.3821 O   0  0  0  0  0  0  0  0  0  0  0  0
    2.1217    1.6166   -2.3779 O   0  0  0  0  0  0  0  0  0  0  0  0
    0.2502   -0.1459   -3.2794 O   0  0  0  0  0  0  0  0  0  0  0  0
   -0.9566    0.6589    0.0034 O   0  0  0  0  0  0  0  0  0  0  0  0
   -1.3054   -1.8711   -2.4963 O   0  0  0  0  0  0  0  0  0  0  0  0
    2.1048    0.2921   -0.1008 H   0  0  0  0  0  0  0  0  0  0  0  0
    0.2621    2.1566   -1.5955 H   0  0  0  0  0  0  0  0  0  0  0  0
    1.0842   -0.8005   -1.5515 H   0  0  0  0  0  0  0  0  0  0  0  0
   -1.6247    0.5767   -1.8649 H   0  0  0  0  0  0  0  0  0  0  0  0
   -0.8996   -2.0622   -0.5084 H   0  0  0  0  0  0  0  0  0  0  0  0
   -2.5407   -1.3325   -0.9551 H   0  0  0  0  0  0  0  0  0  0  0  0
    0.0455    1.6877    1.3891 H   0  0  0  0  0  0  0  0  0  0  0  0
    1.1820   -0.1644   -3.6534 H   0  0  0  0  0  0  0  0  0  0  0  0
   -0.9639   -2.8073   -2.4760 H   0  0  0  0  0  0  0  0  0  0  0  0
    0.0301   -0.1356    2.4271 H   0  0  0  0  0  0  0  0  0  0  0  0
    2.6005    1.9855    1.2042 H   0  0  0  0  0  0  0  0  0  0  0  0
    1.7759    1.9199   -3.2503 H   0  0  0  0  0  0  0  0  0  0  0  0
  1  2  1  0
  1  6  1  0
  1  8  1  0
  1 13  1  6
  2  3  1  0
  2  9  1  0
  2 14  1  1
  3  4  1  0
  3 10  1  0
  3 15  1  1
  4  5  1  0
  4 11  1  0
  4 16  1  6
  5 12  1  0
  5 17  1  1
  5 18  1  0
  6  7  1  0
  6 11  1  0
  6 19  1  1
 10 20  1  0
 12 21  1  0
  7 22  1  0
  8 23  1  0
  9 24  1  0
M  END
$$$$
GLUCANASE
     RDKit          3D

 24 24  0  0  0  0  0  0  0  0999 V2000
   -1.0960   -0.7272    1.3500 C   0  0  2  0  0  0  0  0  0  0  0  0
   -0.7882    0.0921    0.1120 C   0  0  2  0  0  0  0  0  0  0  0  0
   -0.1242    1.4206    0.4727 C   0  0  1  0  0  0  0  0  0  0  0  0
    0.5554    1.1788    1.8015 C   0  0  1  0  0  0  0  0  0  0  0  0
    1.6008    2.1988    2.1266 C   0  0  1  0  0  0  0  0  0  0  0  0
   -1.3347    0.1259    2.5617 C   0  0  2  0  0  0  0  0  0  0  0  0
   -2.5634    0.7929    2.3514 O   0  0  0  0  0  0  0  0  0  0  0  0
   -0.1788   -1.7529    1.5559 O   0  0  0  0  0  0  0  0  0  0  0  0
   -1.9442    0.3623   -0.6015 O   0  0  0  0  0  0  0  0  0  0  0  0
    0.8065    1.7907   -0.4911 O   0  0  0  0  0  0  0  0  0  0  0  0
   -0.3782    1.0755    2.8114 O   0  0  0  0  0  0  0  0  0  0  0  0
    2.4818    2.2065    1.0285 O   0  0  0  0  0  0  0  0  0  0  0  0
   -2.0666   -1.2425    1.1319 H   0  0  0  0  0  0  0  0  0  0  0  0
   -0.0776   -0.4615   -0.5231 H   0  0  0  0  0  0  0  0  0  0  0  0
   -0.8670    2.2384    0.5267 H   0  0  0  0  0  0  0  0  0  0  0  0
    1.0847    0.2070    1.7203 H   0  0  0  0  0  0  0  0  0  0  0  0
    1.2010    3.2163    2.3126 H   0  0  0  0  0  0  0  0  0  0  0  0
    2.1864    1.8186    2.9882 H   0  0  0  0  0  0  0  0  0  0  0  0
   -1.4788   -0.5460    3.4129 H   0  0  0  0  0  0  0  0  0  0  0  0
    0.8115    2.7768   -0.6425 H   0  0  0  0  0  0  0  0  0  0  0  0
    2.7050    1.2345    0.8770 H   0  0  0  0  0  0  0  0  0  0  0  0
   -3.3009    0.1463    2.2275 H   0  0  0  0  0  0  0  0  0  0  0  0
    0.0529   -1.8755    2.5137 H   0  0  0  0  0  0  0  0  0  0  0  0
   -2.3184    1.2550   -0.4450 H   0  0  0  0  0  0  0  0  0  0  0  0
  1  2  1  0
  1  6  1  0
  1  8  1  0
  1 13  1  6
  2  3  1  0
  2  9  1  0
  2 14  1  6
  3  4  1  0
  3 10  1  0
  3 15  1  1
  4  5  1  0
  4 11  1  0
  4 16  1  6
  5 12  1  0
  5 17  1  1
  5 18  1  0
  6  7  1  0
  6 11  1  0
  6 19  1  1
 10 20  1  0
 12 21  1  0
  7 22  1  0
  8 23  1  0
  9 24  1  0
M  END
$$$$
GLUCANASE
     RDKit          3D

 24 24  0  0  0  0  0  0  0  0999 V2000
   -1.2275    0.1100   -0.3693 C   0  0  2  0  0  0  0  0  0  0  0  0
    0.0059    0.7110   -0.9929 C   0  0  2  0  0  0  0  0  0  0  0  0
    1.2173    0.3827   -0.1081 C   0  0  1  0  0  0  0  0  0  0  0  0
    1.1895   -1.1084    0.0433 C   0  0  1  0  0  0  0  0  0  0  0  0
    2.5074   -1.7345    0.3938 C   0  0  1  0  0  0  0  0  0  0  0  0
   -1.0291   -1.2931    0.1280 C   0  0  2  0  0  0  0  0  0  0  0  0
   -2.1557   -1.6412    0.8633 O   0  0  0  0  0  0  0  0  0  0  0  0
   -2.1907    0.0299   -1.3844 O   0  0  0  0  0  0  0  0  0  0  0  0
   -0.1752    2.0727   -1.1453 O   0  0  0  0  0  0  0  0  0  0  0  0
    2.3921    0.7852   -0.7253 O   0  0  0  0  0  0  0  0  0  0  0  0
    0.1469   -1.4542    0.8640 O   0  0  0  0  0  0  0  0  0  0  0  0
    2.3155   -3.1185    0.3097 O   0  0  0  0  0  0  0  0  0  0  0  0
   -1.5707    0.7459    0.4588 H   0  0  0  0  0  0  0  0  0  0  0  0
    0.1977    0.1838   -1.9503 H   0  0  0  0  0  0  0  0  0  0  0  0
    1.0611    0.9489    0.8292 H   0  0  0  0  0  0  0  0  0  0  0  0
    0.9371   -1.5225   -0.9770 H   0  0  0  0  0  0  0  0  0  0  0  0
    3.2292   -1.4478   -0.3914 H   0  0  0  0  0  0  0  0  0  0  0  0
    2.9113   -1.4384    1.3795 H   0  0  0  0  0  0  0  0  0  0  0  0
   -0.9239   -1.9565   -0.7637 H   0  0  0  0  0  0  0  0  0  0  0  0
    3.0074    1.1817   -0.0764 H   0  0  0  0  0  0  0  0  0  0  0  0
    2.0946   -3.2771   -0.6631 H   0  0  0  0  0  0  0  0  0  0  0  0
   -2.0717   -2.4545    1.3974 H   0  0  0  0  0  0  0  0  0  0  0  0
   -2.8193   -0.7329   -1.2220 H   0  0  0  0  0  0  0  0  0  0  0  0
    0.6797    2.4893   -1.4415 H   0  0  0  0  0  0  0  0  0  0  0  0
  1  2  1  0
  1  6  1  0
  1  8  1  0
  1 13  1  1
  2  3  1  0
  2  9  1  0
  2 14  1  6
  3  4  1  0
  3 10  1  0
  3 15  1  1
  4  5  1  0
  4 11  1  0
  4 16  1  6
  5 12  1  0
  5 17  1  6
  5 18  1  0
  6  7  1  0
  6 11  1  0
  6 19  1  6
 10 20  1  0
 12 21  1  0
  7 22  1  0
  8 23  1  0
  9 24  1  0
M  END
$$$$
GLUCANASE
     RDKit          3D

 24 24  0  0  0  0  0  0  0  0999 V2000
   -0.4685   -0.3999    0.7153 C   0  0  2  0  0  0  0  0  0  0  0  0
   -0.1914   -0.8557   -0.6641 C   0  0  2  0  0  0  0  0  0  0  0  0
    0.3501    0.2283   -1.5818 C   0  0  1  0  0  0  0  0  0  0  0  0
    1.3319    0.9863   -0.7128 C   0  0  1  0  0  0  0  0  0  0  0  0
    2.2707    1.8333   -1.5207 C   0  0  1  0  0  0  0  0  0  0  0  0
   -0.1005    0.9866    1.0906 C   0  0  2  0  0  0  0  0  0  0  0  0
   -1.2148    1.7120    1.5133 O   0  0  0  0  0  0  0  0  0  0  0  0
    0.1133   -1.3309    1.6061 O   0  0  0  0  0  0  0  0  0  0  0  0
   -1.3085   -1.4871   -1.2604 O   0  0  0  0  0  0  0  0  0  0  0  0
    0.9592   -0.3247   -2.6977 O   0  0  0  0  0  0  0  0  0  0  0  0
    0.5305    1.7322    0.1239 O   0  0  0  0  0  0  0  0  0  0  0  0
    1.6125    2.7437   -2.3350 O   0  0  0  0  0  0  0  0  0  0  0  0
   -1.5737   -0.5432    0.8986 H   0  0  0  0  0  0  0  0  0  0  0  0
    0.5970   -1.6575   -0.6925 H   0  0  0  0  0  0  0  0  0  0  0  0
   -0.5320    0.8522   -1.8385 H   0  0  0  0  0  0  0  0  0  0  0  0
    1.9306    0.3018   -0.0787 H   0  0  0  0  0  0  0  0  0  0  0  0
    2.9634    2.4076   -0.8910 H   0  0  0  0  0  0  0  0  0  0  0  0
    2.8983    1.1990   -2.1792 H   0  0  0  0  0  0  0  0  0  0  0  0
    0.5997    0.9566    1.9564 H   0  0  0  0  0  0  0  0  0  0  0  0
    0.6607    0.0829   -3.5523 H   0  0  0  0  0  0  0  0  0  0  0  0
    2.1014    2.8590   -3.1868 H   0  0  0  0  0  0  0  0  0  0  0  0
   -1.1293    2.0468    2.4375 H   0  0  0  0  0  0  0  0  0  0  0  0
   -0.2633   -2.2299    1.4295 H   0  0  0  0  0  0  0  0  0  0  0  0
   -1.3101   -2.4617   -1.1136 H   0  0  0  0  0  0  0  0  0  0  0  0
  1  2  1  0
  1  6  1  0
  1  8  1  0
  1 13  1  1
  2  3  1  0
  2  9  1  0
  2 14  1  1
  3  4  1  0
  3 10  1  0
  3 15  1  6
  4  5  1  0
  4 11  1  0
  4 16  1  1
  5 12  1  0
  5 17  1  1
  5 18  1  0
  6  7  1  0
  6 11  1  0
  6 19  1  1
 10 20  1  0
 12 21  1  0
  7 22  1  0
  8 23  1  0
  9 24  1  0
M  END
$$$$
GLUCANASE
     RDKit          3D

 24 24  0  0  0  0  0  0  0  0999 V2000
    2.1081   -1.6409    0.5482 C   0  0  2  0  0  0  0  0  0  0  0  0
    1.2107   -2.1867   -0.5274 C   0  0  2  0  0  0  0  0  0  0  0  0
    0.5753   -1.1244   -1.3509 C   0  0  1  0  0  0  0  0  0  0  0  0
    0.2650    0.1435   -0.6107 C   0  0  1  0  0  0  0  0  0  0  0  0
   -1.1708    0.1846   -0.1363 C   0  0  1  0  0  0  0  0  0  0  0  0
    1.4721   -0.4983    1.2708 C   0  0  2  0  0  0  0  0  0  0  0  0
    0.4493   -0.8506    2.1148 O   0  0  0  0  0  0  0  0  0  0  0  0
    3.2538   -1.1544   -0.0907 O   0  0  0  0  0  0  0  0  0  0  0  0
    0.2771   -3.1030   -0.0230 O   0  0  0  0  0  0  0  0  0  0  0  0
    1.3613   -0.8589   -2.4545 O   0  0  0  0  0  0  0  0  0  0  0  0
    1.1801    0.4867    0.3549 O   0  0  0  0  0  0  0  0  0  0  0  0
   -2.0539   -0.1782   -1.1768 O   0  0  0  0  0  0  0  0  0  0  0  0
    2.4301   -2.4630    1.1940 H   0  0  0  0  0  0  0  0  0  0  0  0
    1.8826   -2.7934   -1.1900 H   0  0  0  0  0  0  0  0  0  0  0  0
   -0.4150   -1.5230   -1.7046 H   0  0  0  0  0  0  0  0  0  0  0  0
    0.3354    0.9769   -1.3728 H   0  0  0  0  0  0  0  0  0  0  0  0
   -1.3593   -0.5614    0.6616 H   0  0  0  0  0  0  0  0  0  0  0  0
   -1.4184    1.2302    0.1646 H   0  0  0  0  0  0  0  0  0  0  0  0
    2.2765   -0.0611    1.9282 H   0  0  0  0  0  0  0  0  0  0  0  0
    2.0370   -0.1909   -2.2178 H   0  0  0  0  0  0  0  0  0  0  0  0
   -2.9586    0.1686   -1.0005 H   0  0  0  0  0  0  0  0  0  0  0  0
    0.2126   -1.7943    2.1224 H   0  0  0  0  0  0  0  0  0  0  0  0
    3.6523   -1.9106   -0.5894 H   0  0  0  0  0  0  0  0  0  0  0  0
    0.7048   -3.6523    0.6757 H   0  0  0  0  0  0  0  0  0  0  0  0
  1  2  1  0
  1  6  1  0
  1  8  1  0
  1 13  1  1
  2  3  1  0
  2  9  1  0
  2 14  1  6
  3  4  1  0
  3 10  1  0
  3 15  1  6
  4  5  1  0
  4 11  1  0
  4 16  1  6
  5 12  1  0
  5 17  1  1
  5 18  1  0
  6  7  1  0
  6 11  1  0
  6 19  1  1
 10 20  1  0
 12 21  1  0
  7 22  1  0
  8 23  1  0
  9 24  1  0
M  END
$$$$
GLUCANASE
     RDKit          3D

 24 24  0  0  0  0  0  0  0  0999 V2000
   -1.0736    1.1043    1.7761 C   0  0  2  0  0  0  0  0  0  0  0  0
    0.2288    0.6847    2.4458 C   0  0  2  0  0  0  0  0  0  0  0  0
    1.3401    1.0832    1.4929 C   0  0  1  0  0  0  0  0  0  0  0  0
    0.8391    1.2092    0.0672 C   0  0  1  0  0  0  0  0  0  0  0  0
    2.0464    1.1104   -0.8217 C   0  0  1  0  0  0  0  0  0  0  0  0
   -1.2098    0.2855    0.5242 C   0  0  2  0  0  0  0  0  0  0  0  0
   -1.5528   -1.0139    0.9510 O   0  0  0  0  0  0  0  0  0  0  0  0
   -1.1761    2.4590    1.6098 O   0  0  0  0  0  0  0  0  0  0  0  0
    0.1791   -0.6781    2.6787 O   0  0  0  0  0  0  0  0  0  0  0  0
    1.8967    2.3065    1.8625 O   0  0  0  0  0  0  0  0  0  0  0  0
   -0.0266    0.1476   -0.1948 O   0  0  0  0  0  0  0  0  0  0  0  0
    2.8651    2.1982   -0.5076 O   0  0  0  0  0  0  0  0  0  0  0  0
   -1.8926    0.7985    2.4659 H   0  0  0  0  0  0  0  0  0  0  0  0
    0.3592    1.2209    3.3969 H   0  0  0  0  0  0  0  0  0  0  0  0
    2.1085    0.2567    1.4697 H   0  0  0  0  0  0  0  0  0  0  0  0
    0.3231    2.1416   -0.1558 H   0  0  0  0  0  0  0  0  0  0  0  0
    2.6349    0.1709   -0.6082 H   0  0  0  0  0  0  0  0  0  0  0  0
    1.8185    1.1700   -1.8983 H   0  0  0  0  0  0  0  0  0  0  0  0
   -2.0644    0.6308   -0.0847 H   0  0  0  0  0  0  0  0  0  0  0  0
    2.5533    2.0706    2.5895 H   0  0  0  0  0  0  0  0  0  0  0  0
    3.5197    1.9979    0.2069 H   0  0  0  0  0  0  0  0  0  0  0  0
   -2.5354   -1.1737    0.9012 H   0  0  0  0  0  0  0  0  0  0  0  0
   -0.3928    2.9712    1.9866 H   0  0  0  0  0  0  0  0  0  0  0  0
    0.6862   -1.2256    2.0452 H   0  0  0  0  0  0  0  0  0  0  0  0
  1  2  1  0
  1  6  1  0
  1  8  1  0
  1 13  1  1
  2  3  1  0
  2  9  1  0
  2 14  1  1
  3  4  1  0
  3 10  1  0
  3 15  1  6
  4  5  1  0
  4 11  1  0
  4 16  1  1
  5 12  1  0
  5 17  1  6
  5 18  1  0
  6  7  1  0
  6 11  1  0
  6 19  1  6
 10 20  1  0
 12 21  1  0
  7 22  1  0
  8 23  1  0
  9 24  1  0
M  END
$$$$
GLUCANASE
     RDKit          3D

 24 24  0  0  0  0  0  0  0  0999 V2000
   -0.9872   -0.9201    1.4112 C   0  0  2  0  0  0  0  0  0  0  0  0
   -2.0884   -0.2124    0.6473 C   0  0  2  0  0  0  0  0  0  0  0  0
   -1.4507    0.4339   -0.5462 C   0  0  1  0  0  0  0  0  0  0  0  0
   -0.2582   -0.2490   -1.1004 C   0  0  1  0  0  0  0  0  0  0  0  0
    0.9559    0.6750   -0.9483 C   0  0  1  0  0  0  0  0  0  0  0  0
   -0.4776   -1.9862    0.4490 C   0  0  2  0  0  0  0  0  0  0  0  0
    0.3591   -2.8731    1.1262 O   0  0  0  0  0  0  0  0  0  0  0  0
   -1.6231   -1.5538    2.4736 O   0  0  0  0  0  0  0  0  0  0  0  0
   -2.6870    0.7124    1.4878 O   0  0  0  0  0  0  0  0  0  0  0  0
   -2.4866    0.6020   -1.4934 O   0  0  0  0  0  0  0  0  0  0  0  0
    0.0024   -1.5200   -0.7258 O   0  0  0  0  0  0  0  0  0  0  0  0
    2.0347    0.2398   -1.7281 O   0  0  0  0  0  0  0  0  0  0  0  0
   -0.1585   -0.2809    1.7145 H   0  0  0  0  0  0  0  0  0  0  0  0
   -2.7763   -0.9959    0.2737 H   0  0  0  0  0  0  0  0  0  0  0  0
   -1.2109    1.4950   -0.2413 H   0  0  0  0  0  0  0  0  0  0  0  0
   -0.4198   -0.2894   -2.2192 H   0  0  0  0  0  0  0  0  0  0  0  0
    0.7103    1.6983   -1.2893 H   0  0  0  0  0  0  0  0  0  0  0  0
    1.3437    0.6711    0.1030 H   0  0  0  0  0  0  0  0  0  0  0  0
   -1.4057   -2.5771    0.2006 H   0  0  0  0  0  0  0  0  0  0  0  0
   -2.0993    0.9975   -2.2986 H   0  0  0  0  0  0  0  0  0  0  0  0
    1.9693    0.6798   -2.6293 H   0  0  0  0  0  0  0  0  0  0  0  0
    0.0834   -2.9347    2.0596 H   0  0  0  0  0  0  0  0  0  0  0  0
   -1.1358   -1.4626    3.3264 H   0  0  0  0  0  0  0  0  0  0  0  0
   -3.2458    0.2301    2.1185 H   0  0  0  0  0  0  0  0  0  0  0  0
  1  2  1  0
  1  6  1  0
  1  8  1  0
  1 13  1  1
  2  3  1  0
  2  9  1  0
  2 14  1  6
  3  4  1  0
  3 10  1  0
  3 15  1  1
  4  5  1  0
  4 11  1  0
  4 16  1  6
  5 12  1  0
  5 17  1  6
  5 18  1  0
  6  7  1  0
  6 11  1  0
  6 19  1  6
 10 20  1  0
 12 21  1  0
  7 22  1  0
  8 23  1  0
  9 24  1  0
M  END
$$$$
GLUCANASE
     RDKit          3D

 24 24  0  0  0  0  0  0  0  0999 V2000
   -0.1277    0.8903    1.2354 C   0  0  2  0  0  0  0  0  0  0  0  0
   -0.7049    0.1871    0.0541 C   0  0  2  0  0  0  0  0  0  0  0  0
    0.3459   -0.7306   -0.5051 C   0  0  1  0  0  0  0  0  0  0  0  0
    1.5419    0.0910   -0.8243 C   0  0  1  0  0  0  0  0  0  0  0  0
    1.3431    1.0245   -1.9878 C   0  0  1  0  0  0  0  0  0  0  0  0
    1.3095    1.2122    1.2099 C   0  0  2  0  0  0  0  0  0  0  0  0
    1.4620    2.6031    1.2102 O   0  0  0  0  0  0  0  0  0  0  0  0
   -0.4414    0.1103    2.3747 O   0  0  0  0  0  0  0  0  0  0  0  0
   -1.2818    1.0225   -0.8922 O   0  0  0  0  0  0  0  0  0  0  0  0
    0.7111   -1.5748    0.5639 O   0  0  0  0  0  0  0  0  0  0  0  0
    2.0940    0.7298    0.2171 O   0  0  0  0  0  0  0  0  0  0  0  0
    2.5600    1.5580   -2.4067 O   0  0  0  0  0  0  0  0  0  0  0  0
   -0.7644    1.8094    1.3859 H   0  0  0  0  0  0  0  0  0  0  0  0
   -1.5467   -0.4972    0.3723 H   0  0  0  0  0  0  0  0  0  0  0  0
    0.0238   -1.3814   -1.3171 H   0  0  0  0  0  0  0  0  0  0  0  0
    2.3164   -0.6487   -1.1894 H   0  0  0  0  0  0  0  0  0  0  0  0
    0.8294    0.5886   -2.8519 H   0  0  0  0  0  0  0  0  0  0  0  0
    0.7698    1.9110   -1.5912 H   0  0  0  0  0  0  0  0  0  0  0  0
    1.7853    0.8923    2.1659 H   0  0  0  0  0  0  0  0  0  0  0  0
    1.1964   -2.3504    0.2264 H   0  0  0  0  0  0  0  0  0  0  0  0
    3.2748    1.1597   -1.8498 H   0  0  0  0  0  0  0  0  0  0  0  0
    0.6271    3.0164    0.8526 H   0  0  0  0  0  0  0  0  0  0  0  0
    0.3524   -0.0675    2.9108 H   0  0  0  0  0  0  0  0  0  0  0  0
   -1.6328    0.4319   -1.6024 H   0  0  0  0  0  0  0  0  0  0  0  0
  1  2  1  0
  1  6  1  0
  1  8  1  0
  1 13  1  1
  2  3  1  0
  2  9  1  0
  2 14  1  1
  3  4  1  0
  3 10  1  0
  3 15  1  6
  4  5  1  0
  4 11  1  0
  4 16  1  6
  5 12  1  0
  5 17  1  6
  5 18  1  0
  6  7  1  0
  6 11  1  0
  6 19  1  1
 10 20  1  0
 12 21  1  0
  7 22  1  0
  8 23  1  0
  9 24  1  0
M  END
$$$$
GLUCANASE
     RDKit          3D

 24 24  0  0  0  0  0  0  0  0999 V2000
   -0.7000    0.7087    0.8685 C   0  0  2  0  0  0  0  0  0  0  0  0
   -0.5469    1.3729   -0.4599 C   0  0  2  0  0  0  0  0  0  0  0  0
    0.2237    0.3902   -1.3408 C   0  0  1  0  0  0  0  0  0  0  0  0
   -0.7243   -0.8148   -1.3921 C   0  0  1  0  0  0  0  0  0  0  0  0
   -0.4662   -1.6708   -2.5953 C   0  0  1  0  0  0  0  0  0  0  0  0
   -0.3350   -0.7394    0.9002 C   0  0  2  0  0  0  0  0  0  0  0  0
    1.0097   -0.9341    1.2865 O   0  0  0  0  0  0  0  0  0  0  0  0
   -1.9915    0.9159    1.3761 O   0  0  0  0  0  0  0  0  0  0  0  0
    0.0018    2.6259   -0.4304 O   0  0  0  0  0  0  0  0  0  0  0  0
    0.5225    0.9000   -2.5748 O   0  0  0  0  0  0  0  0  0  0  0  0
   -0.6181   -1.4742   -0.2029 O   0  0  0  0  0  0  0  0  0  0  0  0
   -0.6110   -0.8606   -3.7324 O   0  0  0  0  0  0  0  0  0  0  0  0
   -0.0099    1.2405    1.5727 H   0  0  0  0  0  0  0  0  0  0  0  0
   -1.5536    1.4502   -0.9157 H   0  0  0  0  0  0  0  0  0  0  0  0
    1.1550    0.1350   -0.7897 H   0  0  0  0  0  0  0  0  0  0  0  0
   -1.7664   -0.4443   -1.4927 H   0  0  0  0  0  0  0  0  0  0  0  0
    0.5254   -2.1639   -2.6018 H   0  0  0  0  0  0  0  0  0  0  0  0
   -1.2845   -2.4169   -2.6334 H   0  0  0  0  0  0  0  0  0  0  0  0
   -0.9235   -1.1803    1.7520 H   0  0  0  0  0  0  0  0  0  0  0  0
    1.4239    0.5925   -2.8426 H   0  0  0  0  0  0  0  0  0  0  0  0
   -1.3191   -0.1664   -3.5419 H   0  0  0  0  0  0  0  0  0  0  0  0
    1.0975   -1.7268    1.8827 H   0  0  0  0  0  0  0  0  0  0  0  0
   -2.5628    1.3120    0.6697 H   0  0  0  0  0  0  0  0  0  0  0  0
    0.9370    2.6753   -0.1404 H   0  0  0  0  0  0  0  0  0  0  0  0
  1  2  1  0
  1  6  1  0
  1  8  1  0
  1 13  1  1
  2  3  1  0
  2  9  1  0
  2 14  1  6
  3  4  1  0
  3 10  1  0
  3 15  1  1
  4  5  1  0
  4 11  1  0
  4 16  1  6
  5 12  1  0
  5 17  1  1
  5 18  1  0
  6  7  1  0
  6 11  1  0
  6 19  1  1
 10 20  1  0
 12 21  1  0
  7 22  1  0
  8 23  1  0
  9 24  1  0
M  END
$$$$
GLUCANASE
     RDKit          3D

 24 24  0  0  0  0  0  0  0  0999 V2000
   -0.6859    2.0410   -0.3068 C   0  0  2  0  0  0  0  0  0  0  0  0
   -0.4267    1.0987   -1.4788 C   0  0  2  0  0  0  0  0  0  0  0  0
    0.1200   -0.1528   -0.7966 C   0  0  1  0  0  0  0  0  0  0  0  0
   -0.7686   -0.6615    0.2581 C   0  0  1  0  0  0  0  0  0  0  0  0
    0.0890   -1.3527    1.3250 C   0  0  1  0  0  0  0  0  0  0  0  0
   -1.8538    1.4051    0.3994 C   0  0  2  0  0  0  0  0  0  0  0  0
   -2.2722    2.2533    1.4108 O   0  0  0  0  0  0  0  0  0  0  0  0
   -0.9707    3.3254   -0.6820 O   0  0  0  0  0  0  0  0  0  0  0  0
    0.4639    1.6271   -2.3755 O   0  0  0  0  0  0  0  0  0  0  0  0
    0.4362   -1.1298   -1.7505 O   0  0  0  0  0  0  0  0  0  0  0  0
   -1.6156    0.1673    0.8929 O   0  0  0  0  0  0  0  0  0  0  0  0
    0.8182   -0.4447    2.0757 O   0  0  0  0  0  0  0  0  0  0  0  0
    0.1786    2.0052    0.3906 H   0  0  0  0  0  0  0  0  0  0  0  0
   -1.4024    0.7961   -1.9223 H   0  0  0  0  0  0  0  0  0  0  0  0
    1.0844    0.1778   -0.3465 H   0  0  0  0  0  0  0  0  0  0  0  0
   -1.3786   -1.4815   -0.1959 H   0  0  0  0  0  0  0  0  0  0  0  0
   -0.5616   -1.9027    2.0592 H   0  0  0  0  0  0  0  0  0  0  0  0
    0.7694   -2.1022    0.8972 H   0  0  0  0  0  0  0  0  0  0  0  0
   -2.6843    1.3318   -0.3466 H   0  0  0  0  0  0  0  0  0  0  0  0
    1.3759   -1.3842   -1.7206 H   0  0  0  0  0  0  0  0  0  0  0  0
    0.7907   -0.6055    3.0516 H   0  0  0  0  0  0  0  0  0  0  0  0
   -3.2532    2.2421    1.5455 H   0  0  0  0  0  0  0  0  0  0  0  0
   -0.3146    3.9466   -0.2344 H   0  0  0  0  0  0  0  0  0  0  0  0
    0.0315    2.3997   -2.8035 H   0  0  0  0  0  0  0  0  0  0  0  0
  1  2  1  0
  1  6  1  0
  1  8  1  0
  1 13  1  1
  2  3  1  0
  2  9  1  0
  2 14  1  6
  3  4  1  0
  3 10  1  0
  3 15  1  1
  4  5  1  0
  4 11  1  0
  4 16  1  6
  5 12  1  0
  5 17  1  1
  5 18  1  0
  6  7  1  0
  6 11  1  0
  6 19  1  6
 10 20  1  0
 12 21  1  0
  7 22  1  0
  8 23  1  0
  9 24  1  0
M  END
$$$$
GLUCANASE
     RDKit          3D

 24 24  0  0  0  0  0  0  0  0999 V2000
   -0.0805   -0.2301   -0.7900 C   0  0  2  0  0  0  0  0  0  0  0  0
    0.4772   -0.9355    0.4526 C   0  0  2  0  0  0  0  0  0  0  0  0
    0.2661    0.1271    1.5414 C   0  0  1  0  0  0  0  0  0  0  0  0
   -1.1099    0.6885    1.4480 C   0  0  1  0  0  0  0  0  0  0  0  0
   -1.1521    2.1869    1.2056 C   0  0  1  0  0  0  0  0  0  0  0  0
   -1.5835   -0.2894   -0.6119 C   0  0  2  0  0  0  0  0  0  0  0  0
   -2.2297    0.4152   -1.6168 O   0  0  0  0  0  0  0  0  0  0  0  0
    0.3243   -0.9371   -1.9147 O   0  0  0  0  0  0  0  0  0  0  0  0
    1.8069   -1.2744    0.3101 O   0  0  0  0  0  0  0  0  0  0  0  0
    0.6089   -0.3761    2.7927 O   0  0  0  0  0  0  0  0  0  0  0  0
   -1.9963   -0.0017    0.6592 O   0  0  0  0  0  0  0  0  0  0  0  0
   -0.2250    2.8403    2.0396 O   0  0  0  0  0  0  0  0  0  0  0  0
    0.3274    0.7956   -0.8021 H   0  0  0  0  0  0  0  0  0  0  0  0
   -0.1807   -1.8054    0.6587 H   0  0  0  0  0  0  0  0  0  0  0  0
    0.9933    0.9347    1.3032 H   0  0  0  0  0  0  0  0  0  0  0  0
   -1.5305    0.5856    2.4942 H   0  0  0  0  0  0  0  0  0  0  0  0
   -1.0869    2.4788    0.1604 H   0  0  0  0  0  0  0  0  0  0  0  0
   -2.1642    2.5394    1.5602 H   0  0  0  0  0  0  0  0  0  0  0  0
   -1.8330   -1.3758   -0.7848 H   0  0  0  0  0  0  0  0  0  0  0  0
    1.3381   -1.0133    2.7156 H   0  0  0  0  0  0  0  0  0  0  0  0
    0.4933    3.2386    1.4514 H   0  0  0  0  0  0  0  0  0  0  0  0
   -2.2510   -0.1502   -2.4498 H   0  0  0  0  0  0  0  0  0  0  0  0
    0.1522   -0.4153   -2.7353 H   0  0  0  0  0  0  0  0  0  0  0  0
    1.8524   -2.2280    0.0344 H   0  0  0  0  0  0  0  0  0  0  0  0
  1  2  1  0
  1  6  1  0
  1  8  1  0
  1 13  1  6
  2  3  1  0
  2  9  1  0
  2 14  1  1
  3  4  1  0
  3 10  1  0
  3 15  1  6
  4  5  1  0
  4 11  1  0
  4 16  1  1
  5 12  1  0
  5 17  1  6
  5 18  1  0
  6  7  1  0
  6 11  1  0
  6 19  1  6
 10 20  1  0
 12 21  1  0
  7 22  1  0
  8 23  1  0
  9 24  1  0
M  END
$$$$
GLUCANASE
     RDKit          3D

 24 24  0  0  0  0  0  0  0  0999 V2000
   -1.3149   -0.2544   -2.2158 C   0  0  2  0  0  0  0  0  0  0  0  0
   -0.6249   -1.5743   -2.0559 C   0  0  2  0  0  0  0  0  0  0  0  0
    0.2415   -1.6112   -0.8047 C   0  0  1  0  0  0  0  0  0  0  0  0
   -0.4433   -0.8673    0.3010 C   0  0  1  0  0  0  0  0  0  0  0  0
    0.4641   -0.9122    1.5343 C   0  0  1  0  0  0  0  0  0  0  0  0
   -0.6303    0.7586   -1.3368 C   0  0  2  0  0  0  0  0  0  0  0  0
    0.6726    0.9927   -1.7583 O   0  0  0  0  0  0  0  0  0  0  0  0
   -2.6543   -0.2965   -1.8289 O   0  0  0  0  0  0  0  0  0  0  0  0
    0.2062   -1.8460   -3.1378 O   0  0  0  0  0  0  0  0  0  0  0  0
    0.4120   -2.9344   -0.4235 O   0  0  0  0  0  0  0  0  0  0  0  0
   -0.7127    0.4472    0.0073 O   0  0  0  0  0  0  0  0  0  0  0  0
   -0.1821   -0.3021    2.6286 O   0  0  0  0  0  0  0  0  0  0  0  0
   -1.2259    0.0938   -3.2625 H   0  0  0  0  0  0  0  0  0  0  0  0
   -1.3688   -2.4112   -1.9909 H   0  0  0  0  0  0  0  0  0  0  0  0
    1.2277   -1.1597   -1.0336 H   0  0  0  0  0  0  0  0  0  0  0  0
   -1.4077   -1.3593    0.5191 H   0  0  0  0  0  0  0  0  0  0  0  0
    0.7682   -1.9482    1.7696 H   0  0  0  0  0  0  0  0  0  0  0  0
    1.3872   -0.3335    1.3307 H   0  0  0  0  0  0  0  0  0  0  0  0
   -1.1959    1.7168   -1.4589 H   0  0  0  0  0  0  0  0  0  0  0  0
    0.8685   -3.3785   -1.1835 H   0  0  0  0  0  0  0  0  0  0  0  0
   -0.1946    0.6650    2.5126 H   0  0  0  0  0  0  0  0  0  0  0  0
    0.7756    0.6518   -2.6789 H   0  0  0  0  0  0  0  0  0  0  0  0
   -3.0103    0.6237   -1.9171 H   0  0  0  0  0  0  0  0  0  0  0  0
   -0.3131   -1.9510   -3.9863 H   0  0  0  0  0  0  0  0  0  0  0  0
  1  2  1  0
  1  6  1  0
  1  8  1  0
  1 13  1  6
  2  3  1  0
  2  9  1  0
  2 14  1  1
  3  4  1  0
  3 10  1  0
  3 15  1  6
  4  5  1  0
  4 11  1  0
  4 16  1  1
  5 12  1  0
  5 17  1  1
  5 18  1  0
  6  7  1  0
  6 11  1  0
  6 19  1  1
 10 20  1  0
 12 21  1  0
  7 22  1  0
  8 23  1  0
  9 24  1  0
M  END
$$$$
GLUCANASE
     RDKit          3D

 24 24  0  0  0  0  0  0  0  0999 V2000
   -1.7783    1.0431   -0.2689 C   0  0  2  0  0  0  0  0  0  0  0  0
   -0.7966    0.9823    0.8573 C   0  0  2  0  0  0  0  0  0  0  0  0
   -0.5124   -0.5101    1.0561 C   0  0  1  0  0  0  0  0  0  0  0  0
    0.3566   -0.8832   -0.1023 C   0  0  1  0  0  0  0  0  0  0  0  0
    0.5446   -2.3674   -0.2906 C   0  0  1  0  0  0  0  0  0  0  0  0
   -1.3889    0.0245   -1.3074 C   0  0  2  0  0  0  0  0  0  0  0  0
   -2.1635   -1.1408   -1.1739 O   0  0  0  0  0  0  0  0  0  0  0  0
   -1.8952    2.2995   -0.8293 O   0  0  0  0  0  0  0  0  0  0  0  0
   -1.1954    1.6117    2.0212 O   0  0  0  0  0  0  0  0  0  0  0  0
    0.1236   -0.6149    2.2844 O   0  0  0  0  0  0  0  0  0  0  0  0
   -0.0338   -0.2945   -1.2801 O   0  0  0  0  0  0  0  0  0  0  0  0
    1.5382   -2.5137   -1.2692 O   0  0  0  0  0  0  0  0  0  0  0  0
   -2.7997    0.7595    0.1112 H   0  0  0  0  0  0  0  0  0  0  0  0
    0.1466    1.4528    0.4940 H   0  0  0  0  0  0  0  0  0  0  0  0
   -1.5001   -0.9959    1.0705 H   0  0  0  0  0  0  0  0  0  0  0  0
    1.3767   -0.4751    0.1262 H   0  0  0  0  0  0  0  0  0  0  0  0
    0.7886   -2.8974    0.6286 H   0  0  0  0  0  0  0  0  0  0  0  0
   -0.4086   -2.7887   -0.7034 H   0  0  0  0  0  0  0  0  0  0  0  0
   -1.5890    0.4588   -2.3088 H   0  0  0  0  0  0  0  0  0  0  0  0
   -0.5524   -0.5546    2.9874 H   0  0  0  0  0  0  0  0  0  0  0  0
    2.2389   -1.8216   -1.1804 H   0  0  0  0  0  0  0  0  0  0  0  0
   -3.1067   -0.8425   -1.0366 H   0  0  0  0  0  0  0  0  0  0  0  0
   -1.3057    2.4279   -1.5973 H   0  0  0  0  0  0  0  0  0  0  0  0
   -0.3436    1.8205    2.5214 H   0  0  0  0  0  0  0  0  0  0  0  0
  1  2  1  0
  1  6  1  0
  1  8  1  0
  1 13  1  1
  2  3  1  0
  2  9  1  0
  2 14  1  6
  3  4  1  0
  3 10  1  0
  3 15  1  1
  4  5  1  0
  4 11  1  0
  4 16  1  1
  5 12  1  0
  5 17  1  1
  5 18  1  0
  6  7  1  0
  6 11  1  0
  6 19  1  6
 10 20  1  0
 12 21  1  0
  7 22  1  0
  8 23  1  0
  9 24  1  0
M  END
$$$$
GLUCANASE
     RDKit          3D

 24 24  0  0  0  0  0  0  0  0999 V2000
   -0.9729   -0.6527    0.8064 C   0  0  2  0  0  0  0  0  0  0  0  0
   -0.7412    0.4667   -0.1767 C   0  0  2  0  0  0  0  0  0  0  0  0
   -0.8058   -0.1878   -1.5547 C   0  0  1  0  0  0  0  0  0  0  0  0
    0.3024   -1.1785   -1.6245 C   0  0  1  0  0  0  0  0  0  0  0  0
    1.3660   -0.5542   -2.5404 C   0  0  1  0  0  0  0  0  0  0  0  0
    0.1726   -1.6080    0.6728 C   0  0  2  0  0  0  0  0  0  0  0  0
    0.9982   -1.4070    1.7800 O   0  0  0  0  0  0  0  0  0  0  0  0
   -2.1342   -1.3195    0.4318 O   0  0  0  0  0  0  0  0  0  0  0  0
    0.5226    1.0368   -0.0876 O   0  0  0  0  0  0  0  0  0  0  0  0
   -2.0429   -0.7920   -1.7725 O   0  0  0  0  0  0  0  0  0  0  0  0
    0.9470   -1.4278   -0.4430 O   0  0  0  0  0  0  0  0  0  0  0  0
    2.3819   -1.4976   -2.6683 O   0  0  0  0  0  0  0  0  0  0  0  0
   -1.0812   -0.2774    1.8585 H   0  0  0  0  0  0  0  0  0  0  0  0
   -1.4911    1.2588   -0.0490 H   0  0  0  0  0  0  0  0  0  0  0  0
   -0.7126    0.6584   -2.2763 H   0  0  0  0  0  0  0  0  0  0  0  0
   -0.0363   -2.0924   -2.1241 H   0  0  0  0  0  0  0  0  0  0  0  0
    0.9242   -0.2843   -3.5202 H   0  0  0  0  0  0  0  0  0  0  0  0
    1.7910    0.3370   -2.0367 H   0  0  0  0  0  0  0  0  0  0  0  0
   -0.1923   -2.6697    0.6765 H   0  0  0  0  0  0  0  0  0  0  0  0
   -2.7808   -0.1594   -1.5526 H   0  0  0  0  0  0  0  0  0  0  0  0
    3.2576   -1.0162   -2.6836 H   0  0  0  0  0  0  0  0  0  0  0  0
    0.7672   -1.9480    2.5562 H   0  0  0  0  0  0  0  0  0  0  0  0
   -2.1112   -2.2641    0.7384 H   0  0  0  0  0  0  0  0  0  0  0  0
    1.1088    0.6643    0.5876 H   0  0  0  0  0  0  0  0  0  0  0  0
  1  2  1  0
  1  6  1  0
  1  8  1  0
  1 13  1  1
  2  3  1  0
  2  9  1  0
  2 14  1  6
  3  4  1  0
  3 10  1  0
  3 15  1  6
  4  5  1  0
  4 11  1  0
  4 16  1  6
  5 12  1  0
  5 17  1  6
  5 18  1  0
  6  7  1  0
  6 11  1  0
  6 19  1  1
 10 20  1  0
 12 21  1  0
  7 22  1  0
  8 23  1  0
  9 24  1  0
M  END
$$$$
GLUCANASE
     RDKit          3D

 24 24  0  0  0  0  0  0  0  0999 V2000
   -1.7240    0.1946    0.7893 C   0  0  2  0  0  0  0  0  0  0  0  0
   -0.3086   -0.2211    0.3577 C   0  0  2  0  0  0  0  0  0  0  0  0
   -0.0271    0.6632   -0.8386 C   0  0  1  0  0  0  0  0  0  0  0  0
   -0.9287    0.1849   -1.9498 C   0  0  1  0  0  0  0  0  0  0  0  0
   -0.0490   -0.5225   -2.9744 C   0  0  1  0  0  0  0  0  0  0  0  0
   -2.5899   -0.2089   -0.3843 C   0  0  2  0  0  0  0  0  0  0  0  0
   -3.3741   -1.2979    0.0661 O   0  0  0  0  0  0  0  0  0  0  0  0
   -1.7452    1.5613    1.0408 O   0  0  0  0  0  0  0  0  0  0  0  0
   -0.4532   -1.5572   -0.0135 O   0  0  0  0  0  0  0  0  0  0  0  0
   -0.3395    2.0030   -0.5496 O   0  0  0  0  0  0  0  0  0  0  0  0
   -1.8876   -0.6603   -1.4673 O   0  0  0  0  0  0  0  0  0  0  0  0
    0.5915   -1.6130   -2.4259 O   0  0  0  0  0  0  0  0  0  0  0  0
   -1.9687   -0.3484    1.7234 H   0  0  0  0  0  0  0  0  0  0  0  0
    0.4177   -0.0951    1.1723 H   0  0  0  0  0  0  0  0  0  0  0  0
    1.0421    0.6497   -1.1259 H   0  0  0  0  0  0  0  0  0  0  0  0
   -1.4193    1.0710   -2.4319 H   0  0  0  0  0  0  0  0  0  0  0  0
   -0.6869   -0.8965   -3.8068 H   0  0  0  0  0  0  0  0  0  0  0  0
    0.7068    0.1643   -3.3995 H   0  0  0  0  0  0  0  0  0  0  0  0
   -3.3257    0.5862   -0.6456 H   0  0  0  0  0  0  0  0  0  0  0  0
    0.4096    2.6126   -0.6938 H   0  0  0  0  0  0  0  0  0  0  0  0
    1.5573   -1.5410   -2.5025 H   0  0  0  0  0  0  0  0  0  0  0  0
   -4.1217   -0.9228    0.5745 H   0  0  0  0  0  0  0  0  0  0  0  0
   -1.4811    1.6747    1.9963 H   0  0  0  0  0  0  0  0  0  0  0  0
   -1.1156   -2.0348    0.5574 H   0  0  0  0  0  0  0  0  0  0  0  0
  1  2  1  0
  1  6  1  0
  1  8  1  0
  1 13  1  1
  2  3  1  0
  2  9  1  0
  2 14  1  1
  3  4  1  0
  3 10  1  0
  3 15  1  6
  4  5  1  0
  4 11  1  0
  4 16  1  6
  5 12  1  0
  5 17  1  6
  5 18  1  0
  6  7  1  0
  6 11  1  0
  6 19  1  6
 10 20  1  0
 12 21  1  0
  7 22  1  0
  8 23  1  0
  9 24  1  0
M  END
$$$$
GLUCANASE
     RDKit          3D

 24 24  0  0  0  0  0  0  0  0999 V2000
    0.4419    0.0336   -1.1624 C   0  0  2  0  0  0  0  0  0  0  0  0
    0.4490   -1.4224   -0.8435 C   0  0  2  0  0  0  0  0  0  0  0  0
   -0.6838   -1.7833    0.1217 C   0  0  1  0  0  0  0  0  0  0  0  0
   -1.8811   -1.1167   -0.5248 C   0  0  1  0  0  0  0  0  0  0  0  0
   -3.1774   -1.7574   -0.1179 C   0  0  1  0  0  0  0  0  0  0  0  0
   -0.7293    0.8349   -0.7438 C   0  0  2  0  0  0  0  0  0  0  0  0
   -0.2975    1.8227    0.1695 O   0  0  0  0  0  0  0  0  0  0  0  0
    0.5763    0.1498   -2.5643 O   0  0  0  0  0  0  0  0  0  0  0  0
    1.6880   -1.8653   -0.3792 O   0  0  0  0  0  0  0  0  0  0  0  0
   -0.8008   -3.1355    0.2855 O   0  0  0  0  0  0  0  0  0  0  0  0
   -1.7776    0.2044   -0.1495 O   0  0  0  0  0  0  0  0  0  0  0  0
   -4.2526   -1.0869   -0.6969 O   0  0  0  0  0  0  0  0  0  0  0  0
    1.4028    0.4572   -0.7452 H   0  0  0  0  0  0  0  0  0  0  0  0
    0.2258   -2.0434   -1.7513 H   0  0  0  0  0  0  0  0  0  0  0  0
   -0.3950   -1.2709    1.0767 H   0  0  0  0  0  0  0  0  0  0  0  0
   -1.8290   -1.1287   -1.6369 H   0  0  0  0  0  0  0  0  0  0  0  0
   -3.1789   -2.7915   -0.5101 H   0  0  0  0  0  0  0  0  0  0  0  0
   -3.3115   -1.7803    0.9764 H   0  0  0  0  0  0  0  0  0  0  0  0
   -1.1689    1.4258   -1.6012 H   0  0  0  0  0  0  0  0  0  0  0  0
   -1.1375   -3.2715    1.2279 H   0  0  0  0  0  0  0  0  0  0  0  0
   -4.2555   -1.2596   -1.6630 H   0  0  0  0  0  0  0  0  0  0  0  0
   -0.6233    2.7140   -0.0379 H   0  0  0  0  0  0  0  0  0  0  0  0
    1.4428    0.4860   -2.8457 H   0  0  0  0  0  0  0  0  0  0  0  0
    2.2186   -2.2670   -1.1354 H   0  0  0  0  0  0  0  0  0  0  0  0
  1  2  1  0
  1  6  1  0
  1  8  1  0
  1 13  1  1
  2  3  1  0
  2  9  1  0
  2 14  1  6
  3  4  1  0
  3 10  1  0
  3 15  1  1
  4  5  1  0
  4 11  1  0
  4 16  1  6
  5 12  1  0
  5 17  1  6
  5 18  1  0
  6  7  1  0
  6 11  1  0
  6 19  1  6
 10 20  1  0
 12 21  1  0
  7 22  1  0
  8 23  1  0
  9 24  1  0
M  END
$$$$
GLUCANASE
     RDKit          3D

 24 24  0  0  0  0  0  0  0  0999 V2000
    1.7733    0.4451   -0.8943 C   0  0  2  0  0  0  0  0  0  0  0  0
    1.4158   -1.0401   -1.0188 C   0  0  2  0  0  0  0  0  0  0  0  0
    0.6927   -1.3390    0.2729 C   0  0  1  0  0  0  0  0  0  0  0  0
   -0.5397   -0.4715    0.3424 C   0  0  1  0  0  0  0  0  0  0  0  0
   -0.9996   -0.5574    1.7915 C   0  0  1  0  0  0  0  0  0  0  0  0
    0.4435    1.1342   -1.0281 C   0  0  2  0  0  0  0  0  0  0  0  0
    0.5653    2.5214   -1.1090 O   0  0  0  0  0  0  0  0  0  0  0  0
    2.7011    0.8409   -1.8171 O   0  0  0  0  0  0  0  0  0  0  0  0
    2.5443   -1.8340   -1.1796 O   0  0  0  0  0  0  0  0  0  0  0  0
    0.3537   -2.6580    0.4293 O   0  0  0  0  0  0  0  0  0  0  0  0
   -0.3005    0.8548    0.0902 O   0  0  0  0  0  0  0  0  0  0  0  0
   -1.2743   -1.8633    2.1659 O   0  0  0  0  0  0  0  0  0  0  0  0
    2.1176    0.6208    0.1462 H   0  0  0  0  0  0  0  0  0  0  0  0
    0.6797   -1.1800   -1.8384 H   0  0  0  0  0  0  0  0  0  0  0  0
    1.3352   -0.9994    1.1275 H   0  0  0  0  0  0  0  0  0  0  0  0
   -1.3244   -0.9458   -0.2560 H   0  0  0  0  0  0  0  0  0  0  0  0
   -0.1528   -0.1424    2.3917 H   0  0  0  0  0  0  0  0  0  0  0  0
   -1.8634    0.1140    1.9626 H   0  0  0  0  0  0  0  0  0  0  0  0
   -0.0099    0.8090   -1.9721 H   0  0  0  0  0  0  0  0  0  0  0  0
    0.6043   -2.9801    1.3332 H   0  0  0  0  0  0  0  0  0  0  0  0
   -1.8481   -2.2858    1.4806 H   0  0  0  0  0  0  0  0  0  0  0  0
    1.0814    2.8346   -1.8695 H   0  0  0  0  0  0  0  0  0  0  0  0
    3.5671    0.4466   -1.5846 H   0  0  0  0  0  0  0  0  0  0  0  0
    2.9816   -1.5022   -2.0032 H   0  0  0  0  0  0  0  0  0  0  0  0
  1  2  1  0
  1  6  1  0
  1  8  1  0
  1 13  1  1
  2  3  1  0
  2  9  1  0
  2 14  1  6
  3  4  1  0
  3 10  1  0
  3 15  1  1
  4  5  1  0
  4 11  1  0
  4 16  1  6
  5 12  1  0
  5 17  1  1
  5 18  1  0
  6  7  1  0
  6 11  1  0
  6 19  1  6
 10 20  1  0
 12 21  1  0
  7 22  1  0
  8 23  1  0
  9 24  1  0
M  END
$$$$
GLUCANASE
     RDKit          3D

 24 24  0  0  0  0  0  0  0  0999 V2000
    0.3457   -1.3948   -0.9727 C   0  0  2  0  0  0  0  0  0  0  0  0
   -0.9587   -0.6490   -1.1317 C   0  0  2  0  0  0  0  0  0  0  0  0
   -1.3243    0.1244    0.1277 C   0  0  1  0  0  0  0  0  0  0  0  0
   -0.0193    0.3365    0.8657 C   0  0  1  0  0  0  0  0  0  0  0  0
   -0.1156    1.3953    1.9141 C   0  0  1  0  0  0  0  0  0  0  0  0
    0.6627   -1.8073    0.4192 C   0  0  2  0  0  0  0  0  0  0  0  0
    0.0857   -3.0196    0.7193 O   0  0  0  0  0  0  0  0  0  0  0  0
    1.4064   -0.7440   -1.6158 O   0  0  0  0  0  0  0  0  0  0  0  0
   -2.0017   -1.4987   -1.5335 O   0  0  0  0  0  0  0  0  0  0  0  0
   -1.9351    1.3280   -0.1215 O   0  0  0  0  0  0  0  0  0  0  0  0
    0.3114   -0.8980    1.3989 O   0  0  0  0  0  0  0  0  0  0  0  0
   -1.0652    1.1566    2.8954 O   0  0  0  0  0  0  0  0  0  0  0  0
    0.2085   -2.3406   -1.5734 H   0  0  0  0  0  0  0  0  0  0  0  0
   -0.7872    0.1204   -1.9217 H   0  0  0  0  0  0  0  0  0  0  0  0
   -1.9856   -0.5440    0.7128 H   0  0  0  0  0  0  0  0  0  0  0  0
    0.7742    0.6324    0.1700 H   0  0  0  0  0  0  0  0  0  0  0  0
    0.9087    1.5168    2.3417 H   0  0  0  0  0  0  0  0  0  0  0  0
   -0.3569    2.3617    1.4245 H   0  0  0  0  0  0  0  0  0  0  0  0
    1.7799   -1.9440    0.4948 H   0  0  0  0  0  0  0  0  0  0  0  0
   -2.2110    1.3765   -1.0555 H   0  0  0  0  0  0  0  0  0  0  0  0
   -1.7609    1.8810    2.9106 H   0  0  0  0  0  0  0  0  0  0  0  0
   -0.8682   -2.9251    0.9589 H   0  0  0  0  0  0  0  0  0  0  0  0
    0.9601   -0.2469   -2.3721 H   0  0  0  0  0  0  0  0  0  0  0  0
   -2.4309   -1.1271   -2.3466 H   0  0  0  0  0  0  0  0  0  0  0  0
  1  2  1  0
  1  6  1  0
  1  8  1  0
  1 13  1  6
  2  3  1  0
  2  9  1  0
  2 14  1  6
  3  4  1  0
  3 10  1  0
  3 15  1  1
  4  5  1  0
  4 11  1  0
  4 16  1  6
  5 12  1  0
  5 17  1  1
  5 18  1  0
  6  7  1  0
  6 11  1  0
  6 19  1  6
 10 20  1  0
 12 21  1  0
  7 22  1  0
  8 23  1  0
  9 24  1  0
M  END
$$$$
GLUCANASE
     RDKit          3D

 24 24  0  0  0  0  0  0  0  0999 V2000
   -1.4448   -0.1731   -1.1524 C   0  0  2  0  0  0  0  0  0  0  0  0
   -0.8914    1.0363   -0.4219 C   0  0  2  0  0  0  0  0  0  0  0  0
    0.6124    0.8353   -0.4586 C   0  0  1  0  0  0  0  0  0  0  0  0
    0.9327   -0.3719    0.3681 C   0  0  1  0  0  0  0  0  0  0  0  0
    1.3322    0.1502    1.7371 C   0  0  1  0  0  0  0  0  0  0  0  0
   -0.9739   -1.4177   -0.4897 C   0  0  2  0  0  0  0  0  0  0  0  0
   -2.1027   -2.0503    0.0447 O   0  0  0  0  0  0  0  0  0  0  0  0
   -1.0281   -0.0650   -2.4827 O   0  0  0  0  0  0  0  0  0  0  0  0
   -1.4025    1.1121    0.8510 O   0  0  0  0  0  0  0  0  0  0  0  0
    0.9789    0.6624   -1.7851 O   0  0  0  0  0  0  0  0  0  0  0  0
   -0.0974   -1.2456    0.5404 O   0  0  0  0  0  0  0  0  0  0  0  0
    1.7426   -0.8662    2.5942 O   0  0  0  0  0  0  0  0  0  0  0  0
   -2.5627   -0.0697   -1.1942 H   0  0  0  0  0  0  0  0  0  0  0  0
   -1.1779    1.9705   -0.9412 H   0  0  0  0  0  0  0  0  0  0  0  0
    1.1005    1.7647   -0.0507 H   0  0  0  0  0  0  0  0  0  0  0  0
    1.8226   -0.8591   -0.0998 H   0  0  0  0  0  0  0  0  0  0  0  0
    2.1600    0.8863    1.5537 H   0  0  0  0  0  0  0  0  0  0  0  0
    0.5063    0.7492    2.1504 H   0  0  0  0  0  0  0  0  0  0  0  0
   -0.6178   -2.1051   -1.2855 H   0  0  0  0  0  0  0  0  0  0  0  0
    1.1984    1.5327   -2.2413 H   0  0  0  0  0  0  0  0  0  0  0  0
    1.3839   -0.6382    3.5065 H   0  0  0  0  0  0  0  0  0  0  0  0
   -2.9547   -1.6213   -0.2288 H   0  0  0  0  0  0  0  0  0  0  0  0
   -0.5617   -0.8533   -2.8089 H   0  0  0  0  0  0  0  0  0  0  0  0
   -1.7285    0.2787    1.2343 H   0  0  0  0  0  0  0  0  0  0  0  0
  1  2  1  0
  1  6  1  0
  1  8  1  0
  1 13  1  6
  2  3  1  0
  2  9  1  0
  2 14  1  6
  3  4  1  0
  3 10  1  0
  3 15  1  1
  4  5  1  0
  4 11  1  0
  4 16  1  6
  5 12  1  0
  5 17  1  6
  5 18  1  0
  6  7  1  0
  6 11  1  0
  6 19  1  6
 10 20  1  0
 12 21  1  0
  7 22  1  0
  8 23  1  0
  9 24  1  0
M  END
$$$$
GLUCANASE
     RDKit          3D

 24 24  0  0  0  0  0  0  0  0999 V2000
    0.3754    0.4883   -2.6720 C   0  0  2  0  0  0  0  0  0  0  0  0
    0.9064    1.0382   -1.3515 C   0  0  2  0  0  0  0  0  0  0  0  0
    2.0713    0.1423   -0.9822 C   0  0  1  0  0  0  0  0  0  0  0  0
    1.4893   -1.2152   -0.6534 C   0  0  1  0  0  0  0  0  0  0  0  0
    1.5120   -1.4536    0.8548 C   0  0  1  0  0  0  0  0  0  0  0  0
   -0.0067   -0.9574   -2.3960 C   0  0  2  0  0  0  0  0  0  0  0  0
   -1.3674   -1.1137   -2.6829 O   0  0  0  0  0  0  0  0  0  0  0  0
    1.4123    0.5913   -3.6018 O   0  0  0  0  0  0  0  0  0  0  0  0
   -0.1413    0.9007   -0.4413 O   0  0  0  0  0  0  0  0  0  0  0  0
    2.8770   -0.0387   -2.1283 O   0  0  0  0  0  0  0  0  0  0  0  0
    0.1983   -1.3296   -1.0931 O   0  0  0  0  0  0  0  0  0  0  0  0
    0.7440   -0.5624    1.5631 O   0  0  0  0  0  0  0  0  0  0  0  0
   -0.4788    1.0760   -3.0426 H   0  0  0  0  0  0  0  0  0  0  0  0
    1.2186    2.0951   -1.4531 H   0  0  0  0  0  0  0  0  0  0  0  0
    2.6772    0.5657   -0.1578 H   0  0  0  0  0  0  0  0  0  0  0  0
    2.0897   -2.0407   -1.0862 H   0  0  0  0  0  0  0  0  0  0  0  0
    1.1838   -2.4815    1.1015 H   0  0  0  0  0  0  0  0  0  0  0  0
    2.5482   -1.3742    1.2536 H   0  0  0  0  0  0  0  0  0  0  0  0
    0.5377   -1.5745   -3.1366 H   0  0  0  0  0  0  0  0  0  0  0  0
    3.1261   -0.9768   -2.2315 H   0  0  0  0  0  0  0  0  0  0  0  0
    1.1375   -0.2630    2.4240 H   0  0  0  0  0  0  0  0  0  0  0  0
   -1.6264   -0.5632   -3.4831 H   0  0  0  0  0  0  0  0  0  0  0  0
    1.3091    1.4235   -4.1602 H   0  0  0  0  0  0  0  0  0  0  0  0
   -0.9273    1.3722   -0.8018 H   0  0  0  0  0  0  0  0  0  0  0  0
  1  2  1  0
  1  6  1  0
  1  8  1  0
  1 13  1  6
  2  3  1  0
  2  9  1  0
  2 14  1  6
  3  4  1  0
  3 10  1  0
  3 15  1  1
  4  5  1  0
  4 11  1  0
  4 16  1  6
  5 12  1  0
  5 17  1  6
  5 18  1  0
  6  7  1  0
  6 11  1  0
  6 19  1  6
 10 20  1  0
 12 21  1  0
  7 22  1  0
  8 23  1  0
  9 24  1  0
M  END
$$$$
GLUCANASE
     RDKit          3D

 24 24  0  0  0  0  0  0  0  0999 V2000
   -2.5681    0.5309   -1.4560 C   0  0  2  0  0  0  0  0  0  0  0  0
   -1.9799   -0.7901   -1.8601 C   0  0  2  0  0  0  0  0  0  0  0  0
   -0.7739   -1.1140   -0.9804 C   0  0  1  0  0  0  0  0  0  0  0  0
   -1.0619   -0.5651    0.3836 C   0  0  1  0  0  0  0  0  0  0  0  0
   -0.1350   -1.1154    1.4553 C   0  0  1  0  0  0  0  0  0  0  0  0
   -1.4958    1.3854   -0.7805 C   0  0  2  0  0  0  0  0  0  0  0  0
   -0.3911    1.4421   -1.6086 O   0  0  0  0  0  0  0  0  0  0  0  0
   -3.6119    0.3698   -0.5362 O   0  0  0  0  0  0  0  0  0  0  0  0
   -1.5988   -0.6568   -3.2026 O   0  0  0  0  0  0  0  0  0  0  0  0
   -0.7113   -2.5164   -0.8546 O   0  0  0  0  0  0  0  0  0  0  0  0
   -1.1379    0.8060    0.4335 O   0  0  0  0  0  0  0  0  0  0  0  0
    1.1526   -0.6503    1.3433 O   0  0  0  0  0  0  0  0  0  0  0  0
   -2.9674    1.1187   -2.2912 H   0  0  0  0  0  0  0  0  0  0  0  0
   -2.7552   -1.5710   -1.7647 H   0  0  0  0  0  0  0  0  0  0  0  0
    0.1767   -0.8179   -1.4246 H   0  0  0  0  0  0  0  0  0  0  0  0
   -2.0751   -0.9762    0.6625 H   0  0  0  0  0  0  0  0  0  0  0  0
   -0.5946   -0.9544    2.4500 H   0  0  0  0  0  0  0  0  0  0  0  0
   -0.1071   -2.2314    1.2874 H   0  0  0  0  0  0  0  0  0  0  0  0
   -1.8593    2.4050   -0.6486 H   0  0  0  0  0  0  0  0  0  0  0  0
    0.2400   -2.7993   -0.7218 H   0  0  0  0  0  0  0  0  0  0  0  0
    1.7165   -1.1683    1.9513 H   0  0  0  0  0  0  0  0  0  0  0  0
    0.4542    1.5839   -1.1424 H   0  0  0  0  0  0  0  0  0  0  0  0
   -3.5803    1.0487    0.1703 H   0  0  0  0  0  0  0  0  0  0  0  0
   -2.3894   -0.9157   -3.7468 H   0  0  0  0  0  0  0  0  0  0  0  0
  1  2  1  0
  1  6  1  0
  1  8  1  0
  1 13  1  6
  2  3  1  0
  2  9  1  0
  2 14  1  6
  3  4  1  0
  3 10  1  0
  3 15  1  6
  4  5  1  0
  4 11  1  0
  4 16  1  1
  5 12  1  0
  5 17  1  1
  5 18  1  0
  6  7  1  0
  6 11  1  0
  6 19  1  1
 10 20  1  0
 12 21  1  0
  7 22  1  0
  8 23  1  0
  9 24  1  0
M  END
$$$$
GLUCANASE
     RDKit          3D

 24 24  0  0  0  0  0  0  0  0999 V2000
   -3.0302    0.4737   -0.9666 C   0  0  2  0  0  0  0  0  0  0  0  0
   -2.7764   -0.5055    0.1588 C   0  0  2  0  0  0  0  0  0  0  0  0
   -1.7545    0.1512    1.0779 C   0  0  1  0  0  0  0  0  0  0  0  0
   -0.5267    0.4558    0.2219 C   0  0  1  0  0  0  0  0  0  0  0  0
    0.6563   -0.1629    0.9356 C   0  0  1  0  0  0  0  0  0  0  0  0
   -1.7075    0.6852   -1.6737 C   0  0  2  0  0  0  0  0  0  0  0  0
   -1.8801    0.3861   -3.0054 O   0  0  0  0  0  0  0  0  0  0  0  0
   -3.4516    1.6846   -0.3708 O   0  0  0  0  0  0  0  0  0  0  0  0
   -2.1888   -1.6660   -0.3603 O   0  0  0  0  0  0  0  0  0  0  0  0
   -2.2890    1.3136    1.6300 O   0  0  0  0  0  0  0  0  0  0  0  0
   -0.6647   -0.0367   -1.0712 O   0  0  0  0  0  0  0  0  0  0  0  0
    1.8620    0.0699    0.3055 O   0  0  0  0  0  0  0  0  0  0  0  0
   -3.8284    0.0837   -1.6551 H   0  0  0  0  0  0  0  0  0  0  0  0
   -3.6550   -0.7464    0.7597 H   0  0  0  0  0  0  0  0  0  0  0  0
   -1.5373   -0.6150    1.8578 H   0  0  0  0  0  0  0  0  0  0  0  0
   -0.3908    1.5552    0.1770 H   0  0  0  0  0  0  0  0  0  0  0  0
    0.7238    0.2830    1.9486 H   0  0  0  0  0  0  0  0  0  0  0  0
    0.5309   -1.2523    1.0778 H   0  0  0  0  0  0  0  0  0  0  0  0
   -1.4002    1.7656   -1.5673 H   0  0  0  0  0  0  0  0  0  0  0  0
   -1.6905    2.1004    1.5504 H   0  0  0  0  0  0  0  0  0  0  0  0
    2.4842   -0.6526    0.5470 H   0  0  0  0  0  0  0  0  0  0  0  0
   -1.1405    0.6892   -3.5834 H   0  0  0  0  0  0  0  0  0  0  0  0
   -4.2765    1.4339    0.1475 H   0  0  0  0  0  0  0  0  0  0  0  0
   -2.5157   -1.8761   -1.2833 H   0  0  0  0  0  0  0  0  0  0  0  0
  1  2  1  0
  1  6  1  0
  1  8  1  0
  1 13  1  6
  2  3  1  0
  2  9  1  0
  2 14  1  1
  3  4  1  0
  3 10  1  0
  3 15  1  1
  4  5  1  0
  4 11  1  0
  4 16  1  6
  5 12  1  0
  5 17  1  1
  5 18  1  0
  6  7  1  0
  6 11  1  0
  6 19  1  6
 10 20  1  0
 12 21  1  0
  7 22  1  0
  8 23  1  0
  9 24  1  0
M  END
$$$$
GLUCANASE
     RDKit          3D

 24 24  0  0  0  0  0  0  0  0999 V2000
    1.2402    0.1780   -0.5623 C   0  0  2  0  0  0  0  0  0  0  0  0
   -0.2456    0.3660   -0.8499 C   0  0  2  0  0  0  0  0  0  0  0  0
   -0.8435    0.5162    0.5402 C   0  0  1  0  0  0  0  0  0  0  0  0
   -0.2461    1.6719    1.2436 C   0  0  1  0  0  0  0  0  0  0  0  0
   -0.2417    1.3428    2.7377 C   0  0  1  0  0  0  0  0  0  0  0  0
    1.7069    1.5036   -0.0536 C   0  0  2  0  0  0  0  0  0  0  0  0
    3.0361    1.4165    0.3932 O   0  0  0  0  0  0  0  0  0  0  0  0
    1.9498   -0.2093   -1.6727 O   0  0  0  0  0  0  0  0  0  0  0  0
   -0.7903   -0.6646   -1.5654 O   0  0  0  0  0  0  0  0  0  0  0  0
   -2.2256    0.6759    0.4034 O   0  0  0  0  0  0  0  0  0  0  0  0
    0.9877    2.0781    0.9142 O   0  0  0  0  0  0  0  0  0  0  0  0
    0.1143    2.5334    3.3929 O   0  0  0  0  0  0  0  0  0  0  0  0
    1.3357   -0.5489    0.2836 H   0  0  0  0  0  0  0  0  0  0  0  0
   -0.3582    1.3624   -1.3348 H   0  0  0  0  0  0  0  0  0  0  0  0
   -0.7089   -0.4462    1.0959 H   0  0  0  0  0  0  0  0  0  0  0  0
   -0.9540    2.5292    1.1451 H   0  0  0  0  0  0  0  0  0  0  0  0
   -1.2490    1.0738    3.1049 H   0  0  0  0  0  0  0  0  0  0  0  0
    0.5396    0.6027    2.9970 H   0  0  0  0  0  0  0  0  0  0  0  0
    1.7372    2.1941   -0.9348 H   0  0  0  0  0  0  0  0  0  0  0  0
   -2.5346    0.6071   -0.5247 H   0  0  0  0  0  0  0  0  0  0  0  0
    0.9869    2.8825    3.0415 H   0  0  0  0  0  0  0  0  0  0  0  0
    3.4882    2.2915    0.2215 H   0  0  0  0  0  0  0  0  0  0  0  0
    1.8674   -1.2072   -1.7347 H   0  0  0  0  0  0  0  0  0  0  0  0
   -0.9681   -0.4586   -2.5256 H   0  0  0  0  0  0  0  0  0  0  0  0
  1  2  1  0
  1  6  1  0
  1  8  1  0
  1 13  1  1
  2  3  1  0
  2  9  1  0
  2 14  1  6
  3  4  1  0
  3 10  1  0
  3 15  1  1
  4  5  1  0
  4 11  1  0
  4 16  1  1
  5 12  1  0
  5 17  1  1
  5 18  1  0
  6  7  1  0
  6 11  1  0
  6 19  1  6
 10 20  1  0
 12 21  1  0
  7 22  1  0
  8 23  1  0
  9 24  1  0
M  END
$$$$
GLUCANASE
     RDKit          3D

 24 24  0  0  0  0  0  0  0  0999 V2000
    1.0178   -1.5225    0.0916 C   0  0  2  0  0  0  0  0  0  0  0  0
    0.5312   -1.1740   -1.2607 C   0  0  2  0  0  0  0  0  0  0  0  0
   -0.8635   -0.5794   -1.2335 C   0  0  1  0  0  0  0  0  0  0  0  0
   -0.8247    0.4464   -0.1267 C   0  0  1  0  0  0  0  0  0  0  0  0
   -1.9056    1.4744   -0.2270 C   0  0  1  0  0  0  0  0  0  0  0  0
    0.3992   -0.8341    1.2449 C   0  0  2  0  0  0  0  0  0  0  0  0
    0.2594   -1.7682    2.2856 O   0  0  0  0  0  0  0  0  0  0  0  0
    2.3966   -1.2309    0.1228 O   0  0  0  0  0  0  0  0  0  0  0  0
    0.5213   -2.2661   -2.1432 O   0  0  0  0  0  0  0  0  0  0  0  0
   -1.2513   -0.0692   -2.4433 O   0  0  0  0  0  0  0  0  0  0  0  0
   -0.8386   -0.2790    1.0449 O   0  0  0  0  0  0  0  0  0  0  0  0
   -3.1829    0.9498   -0.1594 O   0  0  0  0  0  0  0  0  0  0  0  0
    0.9643   -2.6381    0.2026 H   0  0  0  0  0  0  0  0  0  0  0  0
    1.1814   -0.4112   -1.7600 H   0  0  0  0  0  0  0  0  0  0  0  0
   -1.5398   -1.4197   -0.9292 H   0  0  0  0  0  0  0  0  0  0  0  0
    0.1464    0.9884   -0.2134 H   0  0  0  0  0  0  0  0  0  0  0  0
   -1.7089    2.2293    0.5616 H   0  0  0  0  0  0  0  0  0  0  0  0
   -1.7438    2.0144   -1.1934 H   0  0  0  0  0  0  0  0  0  0  0  0
    1.0593   -0.0315    1.6608 H   0  0  0  0  0  0  0  0  0  0  0  0
   -1.9369   -0.6668   -2.8587 H   0  0  0  0  0  0  0  0  0  0  0  0
   -3.8208    1.6692   -0.3855 H   0  0  0  0  0  0  0  0  0  0  0  0
    1.1149   -1.9586    2.7243 H   0  0  0  0  0  0  0  0  0  0  0  0
    2.4815   -0.2598    0.3426 H   0  0  0  0  0  0  0  0  0  0  0  0
    1.4542   -2.4394   -2.4587 H   0  0  0  0  0  0  0  0  0  0  0  0
  1  2  1  0
  1  6  1  0
  1  8  1  0
  1 13  1  1
  2  3  1  0
  2  9  1  0
  2 14  1  6
  3  4  1  0
  3 10  1  0
  3 15  1  1
  4  5  1  0
  4 11  1  0
  4 16  1  6
  5 12  1  0
  5 17  1  1
  5 18  1  0
  6  7  1  0
  6 11  1  0
  6 19  1  1
 10 20  1  0
 12 21  1  0
  7 22  1  0
  8 23  1  0
  9 24  1  0
M  END
$$$$
GLUCANASE
     RDKit          3D

 24 24  0  0  0  0  0  0  0  0999 V2000
   -0.2903    0.0380    1.6084 C   0  0  2  0  0  0  0  0  0  0  0  0
   -0.0454   -0.8127    0.3956 C   0  0  2  0  0  0  0  0  0  0  0  0
    1.3343   -0.5016   -0.1005 C   0  0  1  0  0  0  0  0  0  0  0  0
    1.5915    0.9653   -0.1986 C   0  0  1  0  0  0  0  0  0  0  0  0
    1.0863    1.4907   -1.5142 C   0  0  1  0  0  0  0  0  0  0  0  0
   -0.0242    1.4907    1.3749 C   0  0  2  0  0  0  0  0  0  0  0  0
   -1.0019    2.1142    0.6109 O   0  0  0  0  0  0  0  0  0  0  0  0
    0.5842   -0.4186    2.5982 O   0  0  0  0  0  0  0  0  0  0  0  0
   -0.9736   -0.6492   -0.6154 O   0  0  0  0  0  0  0  0  0  0  0  0
    2.2800   -1.0244    0.7860 O   0  0  0  0  0  0  0  0  0  0  0  0
    1.2311    1.7127    0.8826 O   0  0  0  0  0  0  0  0  0  0  0  0
    1.5830    2.7683   -1.7216 O   0  0  0  0  0  0  0  0  0  0  0  0
   -1.3105   -0.1547    1.9526 H   0  0  0  0  0  0  0  0  0  0  0  0
   -0.0763   -1.8879    0.7341 H   0  0  0  0  0  0  0  0  0  0  0  0
    1.4822   -0.9452   -1.1075 H   0  0  0  0  0  0  0  0  0  0  0  0
    2.7163    1.0668   -0.2717 H   0  0  0  0  0  0  0  0  0  0  0  0
    1.4368    0.8368   -2.3247 H   0  0  0  0  0  0  0  0  0  0  0  0
   -0.0191    1.5197   -1.5790 H   0  0  0  0  0  0  0  0  0  0  0  0
   -0.0665    1.9756    2.3842 H   0  0  0  0  0  0  0  0  0  0  0  0
    3.0653   -0.4179    0.8797 H   0  0  0  0  0  0  0  0  0  0  0  0
    0.8649    3.4251   -1.7896 H   0  0  0  0  0  0  0  0  0  0  0  0
   -0.6642    3.0233    0.4191 H   0  0  0  0  0  0  0  0  0  0  0  0
    1.3763    0.1838    2.6378 H   0  0  0  0  0  0  0  0  0  0  0  0
   -1.8883   -0.4709   -0.3251 H   0  0  0  0  0  0  0  0  0  0  0  0
  1  2  1  0
  1  6  1  0
  1  8  1  0
  1 13  1  1
  2  3  1  0
  2  9  1  0
  2 14  1  1
  3  4  1  0
  3 10  1  0
  3 15  1  6
  4  5  1  0
  4 11  1  0
  4 16  1  6
  5 12  1  0
  5 17  1  6
  5 18  1  0
  6  7  1  0
  6 11  1  0
  6 19  1  1
 10 20  1  0
 12 21  1  0
  7 22  1  0
  8 23  1  0
  9 24  1  0
M  END
$$$$
GLUCANASE
     RDKit          3D

 24 24  0  0  0  0  0  0  0  0999 V2000
   -1.7137    0.6386    0.3238 C   0  0  2  0  0  0  0  0  0  0  0  0
   -1.9703   -0.8488    0.1952 C   0  0  2  0  0  0  0  0  0  0  0  0
   -0.7418   -1.4900   -0.3300 C   0  0  1  0  0  0  0  0  0  0  0  0
    0.5331   -0.7404   -0.2114 C   0  0  1  0  0  0  0  0  0  0  0  0
    1.0393   -0.2479   -1.5752 C   0  0  1  0  0  0  0  0  0  0  0  0
   -0.5320    0.7363    1.2488 C   0  0  2  0  0  0  0  0  0  0  0  0
   -0.3179    2.0204    1.7212 O   0  0  0  0  0  0  0  0  0  0  0  0
   -2.7943    1.3017    0.8949 O   0  0  0  0  0  0  0  0  0  0  0  0
   -3.0413   -1.0496   -0.6745 O   0  0  0  0  0  0  0  0  0  0  0  0
   -0.6760   -2.7737    0.2525 O   0  0  0  0  0  0  0  0  0  0  0  0
    0.6195    0.2247    0.7444 O   0  0  0  0  0  0  0  0  0  0  0  0
    2.3724    0.1423   -1.4947 O   0  0  0  0  0  0  0  0  0  0  0  0
   -1.5387    1.0084   -0.6934 H   0  0  0  0  0  0  0  0  0  0  0  0
   -2.2503   -1.1811    1.2364 H   0  0  0  0  0  0  0  0  0  0  0  0
   -0.8853   -1.7071   -1.4286 H   0  0  0  0  0  0  0  0  0  0  0  0
    1.3092   -1.5016    0.0884 H   0  0  0  0  0  0  0  0  0  0  0  0
    1.0026   -1.0650   -2.3198 H   0  0  0  0  0  0  0  0  0  0  0  0
    0.4930    0.6563   -1.9211 H   0  0  0  0  0  0  0  0  0  0  0  0
   -0.8025    0.1141    2.1509 H   0  0  0  0  0  0  0  0  0  0  0  0
   -0.9293   -2.7192    1.2063 H   0  0  0  0  0  0  0  0  0  0  0  0
    2.4571    1.0470   -1.0731 H   0  0  0  0  0  0  0  0  0  0  0  0
   -0.1185    2.6185    0.9473 H   0  0  0  0  0  0  0  0  0  0  0  0
   -3.2196    1.8781    0.2113 H   0  0  0  0  0  0  0  0  0  0  0  0
   -3.8684   -1.1901   -0.1297 H   0  0  0  0  0  0  0  0  0  0  0  0
  1  2  1  0
  1  6  1  0
  1  8  1  0
  1 13  1  6
  2  3  1  0
  2  9  1  0
  2 14  1  1
  3  4  1  0
  3 10  1  0
  3 15  1  6
  4  5  1  0
  4 11  1  0
  4 16  1  1
  5 12  1  0
  5 17  1  6
  5 18  1  0
  6  7  1  0
  6 11  1  0
  6 19  1  1
 10 20  1  0
 12 21  1  0
  7 22  1  0
  8 23  1  0
  9 24  1  0
M  END
$$$$
GLUCANASE
     RDKit          3D

 24 24  0  0  0  0  0  0  0  0999 V2000
    1.5127    1.3919   -0.2850 C   0  0  2  0  0  0  0  0  0  0  0  0
    0.9829    0.6724   -1.4969 C   0  0  2  0  0  0  0  0  0  0  0  0
    0.2667   -0.5822   -1.0024 C   0  0  1  0  0  0  0  0  0  0  0  0
   -0.9939   -0.1018   -0.3305 C   0  0  1  0  0  0  0  0  0  0  0  0
   -1.5931   -1.0922    0.6239 C   0  0  1  0  0  0  0  0  0  0  0  0
    0.5053    1.2350    0.8295 C   0  0  2  0  0  0  0  0  0  0  0  0
    0.8742    0.1511    1.6149 O   0  0  0  0  0  0  0  0  0  0  0  0
    1.6964    2.7487   -0.4872 O   0  0  0  0  0  0  0  0  0  0  0  0
    2.0275    0.3649   -2.3477 O   0  0  0  0  0  0  0  0  0  0  0  0
    0.0274   -1.3677   -2.1270 O   0  0  0  0  0  0  0  0  0  0  0  0
   -0.7796    1.0764    0.3639 O   0  0  0  0  0  0  0  0  0  0  0  0
   -1.8644   -2.3255    0.0695 O   0  0  0  0  0  0  0  0  0  0  0  0
    2.5054    0.9475   -0.0209 H   0  0  0  0  0  0  0  0  0  0  0  0
    0.2455    1.2593   -2.0706 H   0  0  0  0  0  0  0  0  0  0  0  0
    0.9355   -1.1446   -0.3367 H   0  0  0  0  0  0  0  0  0  0  0  0
   -1.7392    0.0685   -1.1290 H   0  0  0  0  0  0  0  0  0  0  0  0
   -0.9845   -1.2703    1.5332 H   0  0  0  0  0  0  0  0  0  0  0  0
   -2.5524   -0.6515    0.9654 H   0  0  0  0  0  0  0  0  0  0  0  0
    0.4972    2.1457    1.4685 H   0  0  0  0  0  0  0  0  0  0  0  0
    0.5188   -2.2373   -2.0991 H   0  0  0  0  0  0  0  0  0  0  0  0
   -2.8172   -2.6072    0.2486 H   0  0  0  0  0  0  0  0  0  0  0  0
    1.6739    0.3217    2.1503 H   0  0  0  0  0  0  0  0  0  0  0  0
    2.2066    2.9742   -1.2948 H   0  0  0  0  0  0  0  0  0  0  0  0
    1.8239   -0.4295   -2.8971 H   0  0  0  0  0  0  0  0  0  0  0  0
  1  2  1  0
  1  6  1  0
  1  8  1  0
  1 13  1  1
  2  3  1  0
  2  9  1  0
  2 14  1  6
  3  4  1  0
  3 10  1  0
  3 15  1  1
  4  5  1  0
  4 11  1  0
  4 16  1  6
  5 12  1  0
  5 17  1  1
  5 18  1  0
  6  7  1  0
  6 11  1  0
  6 19  1  1
 10 20  1  0
 12 21  1  0
  7 22  1  0
  8 23  1  0
  9 24  1  0
M  END
$$$$
GLUCANASE
     RDKit          3D

 24 24  0  0  0  0  0  0  0  0999 V2000
    1.8295    1.0247    0.7265 C   0  0  2  0  0  0  0  0  0  0  0  0
    1.5847    1.2365   -0.7382 C   0  0  2  0  0  0  0  0  0  0  0  0
    0.7324    0.1114   -1.3389 C   0  0  1  0  0  0  0  0  0  0  0  0
   -0.4314   -0.0636   -0.4244 C   0  0  1  0  0  0  0  0  0  0  0  0
   -1.5483   -0.8788   -1.0025 C   0  0  1  0  0  0  0  0  0  0  0  0
    0.6671    0.4321    1.4426 C   0  0  2  0  0  0  0  0  0  0  0  0
    1.0344    0.0564    2.7248 O   0  0  0  0  0  0  0  0  0  0  0  0
    2.0323    2.3068    1.2887 O   0  0  0  0  0  0  0  0  0  0  0  0
    2.7533    1.3286   -1.4753 O   0  0  0  0  0  0  0  0  0  0  0  0
    0.4396    0.4823   -2.6233 O   0  0  0  0  0  0  0  0  0  0  0  0
    0.0820   -0.6348    0.7549 O   0  0  0  0  0  0  0  0  0  0  0  0
   -1.1800   -2.1592   -1.3322 O   0  0  0  0  0  0  0  0  0  0  0  0
    2.7815    0.4876    0.9251 H   0  0  0  0  0  0  0  0  0  0  0  0
    1.0015    2.1810   -0.8473 H   0  0  0  0  0  0  0  0  0  0  0  0
    1.3819   -0.7897   -1.3238 H   0  0  0  0  0  0  0  0  0  0  0  0
   -0.8261    0.9377   -0.1589 H   0  0  0  0  0  0  0  0  0  0  0  0
   -2.3879   -0.8985   -0.3024 H   0  0  0  0  0  0  0  0  0  0  0  0
   -1.8964   -0.3423   -1.9088 H   0  0  0  0  0  0  0  0  0  0  0  0
   -0.1428    1.2176    1.4627 H   0  0  0  0  0  0  0  0  0  0  0  0
   -0.2610   -0.0126   -3.0831 H   0  0  0  0  0  0  0  0  0  0  0  0
   -1.6480   -2.4267   -2.1588 H   0  0  0  0  0  0  0  0  0  0  0  0
    0.2552   -0.3014    3.2192 H   0  0  0  0  0  0  0  0  0  0  0  0
    1.9167    2.3048    2.2697 H   0  0  0  0  0  0  0  0  0  0  0  0
    3.1092    2.2519   -1.3748 H   0  0  0  0  0  0  0  0  0  0  0  0
  1  2  1  0
  1  6  1  0
  1  8  1  0
  1 13  1  6
  2  3  1  0
  2  9  1  0
  2 14  1  1
  3  4  1  0
  3 10  1  0
  3 15  1  6
  4  5  1  0
  4 11  1  0
  4 16  1  1
  5 12  1  0
  5 17  1  1
  5 18  1  0
  6  7  1  0
  6 11  1  0
  6 19  1  1
 10 20  1  0
 12 21  1  0
  7 22  1  0
  8 23  1  0
  9 24  1  0
M  END
$$$$
GLUCANASE
     RDKit          3D

 24 24  0  0  0  0  0  0  0  0999 V2000
   -0.2170   -1.9162    1.3318 C   0  0  2  0  0  0  0  0  0  0  0  0
   -0.2186   -1.5974   -0.1603 C   0  0  2  0  0  0  0  0  0  0  0  0
    0.9761   -0.6835   -0.3529 C   0  0  1  0  0  0  0  0  0  0  0  0
    0.5510    0.6449    0.2419 C   0  0  1  0  0  0  0  0  0  0  0  0
    0.0761    1.4880   -0.9286 C   0  0  1  0  0  0  0  0  0  0  0  0
   -0.2844   -0.5691    2.0295 C   0  0  2  0  0  0  0  0  0  0  0  0
   -1.4315   -0.6078    2.8488 O   0  0  0  0  0  0  0  0  0  0  0  0
    0.9247   -2.6429    1.6880 O   0  0  0  0  0  0  0  0  0  0  0  0
   -1.4219   -0.9236   -0.3718 O   0  0  0  0  0  0  0  0  0  0  0  0
    2.0541   -1.1344    0.4417 O   0  0  0  0  0  0  0  0  0  0  0  0
   -0.4325    0.4934    1.1842 O   0  0  0  0  0  0  0  0  0  0  0  0
   -0.3024    2.7586   -0.5067 O   0  0  0  0  0  0  0  0  0  0  0  0
   -1.1385   -2.5205    1.4893 H   0  0  0  0  0  0  0  0  0  0  0  0
   -0.1571   -2.5079   -0.7766 H   0  0  0  0  0  0  0  0  0  0  0  0
    1.2899   -0.5850   -1.4097 H   0  0  0  0  0  0  0  0  0  0  0  0
    1.4193    1.1911    0.6668 H   0  0  0  0  0  0  0  0  0  0  0  0
    0.8909    1.5731   -1.6754 H   0  0  0  0  0  0  0  0  0  0  0  0
   -0.7766    1.0332   -1.4751 H   0  0  0  0  0  0  0  0  0  0  0  0
    0.5882   -0.4539    2.7290 H   0  0  0  0  0  0  0  0  0  0  0  0
    2.5390   -0.3411    0.7815 H   0  0  0  0  0  0  0  0  0  0  0  0
   -0.9911    3.0886   -1.1150 H   0  0  0  0  0  0  0  0  0  0  0  0
   -1.2166   -0.4515    3.8015 H   0  0  0  0  0  0  0  0  0  0  0  0
    0.6925   -3.6160    1.7151 H   0  0  0  0  0  0  0  0  0  0  0  0
   -2.1381   -1.5147   -0.0419 H   0  0  0  0  0  0  0  0  0  0  0  0
  1  2  1  0
  1  6  1  0
  1  8  1  0
  1 13  1  6
  2  3  1  0
  2  9  1  0
  2 14  1  6
  3  4  1  0
  3 10  1  0
  3 15  1  6
  4  5  1  0
  4 11  1  0
  4 16  1  1
  5 12  1  0
  5 17  1  6
  5 18  1  0
  6  7  1  0
  6 11  1  0
  6 19  1  1
 10 20  1  0
 12 21  1  0
  7 22  1  0
  8 23  1  0
  9 24  1  0
M  END
$$$$
GLUCANASE
     RDKit          3D

 24 24  0  0  0  0  0  0  0  0999 V2000
   -0.0561    1.2119   -0.6821 C   0  0  2  0  0  0  0  0  0  0  0  0
   -1.5344    0.9691   -0.6481 C   0  0  2  0  0  0  0  0  0  0  0  0
   -1.9204    0.4799    0.7086 C   0  0  1  0  0  0  0  0  0  0  0  0
   -0.8135   -0.1220    1.5105 C   0  0  1  0  0  0  0  0  0  0  0  0
   -0.6110   -1.5964    1.2082 C   0  0  1  0  0  0  0  0  0  0  0  0
    0.3326    1.7103    0.6957 C   0  0  2  0  0  0  0  0  0  0  0  0
    1.6180    2.2571    0.6757 O   0  0  0  0  0  0  0  0  0  0  0  0
    0.2619    2.1406   -1.6689 O   0  0  0  0  0  0  0  0  0  0  0  0
   -2.0120    0.1934   -1.6967 O   0  0  0  0  0  0  0  0  0  0  0  0
   -2.4830    1.5091    1.4732 O   0  0  0  0  0  0  0  0  0  0  0  0
    0.3548    0.6013    1.5316 O   0  0  0  0  0  0  0  0  0  0  0  0
   -1.8364   -2.2807    1.1991 O   0  0  0  0  0  0  0  0  0  0  0  0
    0.5583    0.3155   -0.8675 H   0  0  0  0  0  0  0  0  0  0  0  0
   -2.0098    1.9822   -0.7960 H   0  0  0  0  0  0  0  0  0  0  0  0
   -2.7140   -0.2851    0.5996 H   0  0  0  0  0  0  0  0  0  0  0  0
   -1.1713   -0.1125    2.5839 H   0  0  0  0  0  0  0  0  0  0  0  0
   -0.0429   -1.7142    0.2626 H   0  0  0  0  0  0  0  0  0  0  0  0
   -0.0166   -2.1002    1.9974 H   0  0  0  0  0  0  0  0  0  0  0  0
   -0.3873    2.4800    1.0204 H   0  0  0  0  0  0  0  0  0  0  0  0
   -3.1931    1.1602    2.0794 H   0  0  0  0  0  0  0  0  0  0  0  0
   -1.9515   -2.6134    0.2680 H   0  0  0  0  0  0  0  0  0  0  0  0
    1.9775    2.2380    1.5926 H   0  0  0  0  0  0  0  0  0  0  0  0
    0.7443    1.7259   -2.4090 H   0  0  0  0  0  0  0  0  0  0  0  0
   -3.0102    0.2529   -1.6273 H   0  0  0  0  0  0  0  0  0  0  0  0
  1  2  1  0
  1  6  1  0
  1  8  1  0
  1 13  1  6
  2  3  1  0
  2  9  1  0
  2 14  1  6
  3  4  1  0
  3 10  1  0
  3 15  1  6
  4  5  1  0
  4 11  1  0
  4 16  1  1
  5 12  1  0
  5 17  1  6
  5 18  1  0
  6  7  1  0
  6 11  1  0
  6 19  1  1
 10 20  1  0
 12 21  1  0
  7 22  1  0
  8 23  1  0
  9 24  1  0
M  END
$$$$
GLUCANASE
     RDKit          3D

 24 24  0  0  0  0  0  0  0  0999 V2000
   -0.9297   -1.3699   -0.9944 C   0  0  2  0  0  0  0  0  0  0  0  0
   -1.4786   -1.1472    0.3858 C   0  0  2  0  0  0  0  0  0  0  0  0
   -0.8018    0.0817    0.9627 C   0  0  1  0  0  0  0  0  0  0  0  0
   -0.9398    1.1654   -0.0929 C   0  0  1  0  0  0  0  0  0  0  0  0
   -0.6655    2.5171    0.5103 C   0  0  1  0  0  0  0  0  0  0  0  0
    0.1587   -0.4298   -1.3821 C   0  0  2  0  0  0  0  0  0  0  0  0
    1.3717   -0.8642   -0.8421 O   0  0  0  0  0  0  0  0  0  0  0  0
   -2.0059   -1.3070   -1.8985 O   0  0  0  0  0  0  0  0  0  0  0  0
   -1.2320   -2.2208    1.2402 O   0  0  0  0  0  0  0  0  0  0  0  0
   -1.3670    0.4944    2.1633 O   0  0  0  0  0  0  0  0  0  0  0  0
   -0.0976    0.8946   -1.1473 O   0  0  0  0  0  0  0  0  0  0  0  0
   -0.8415    3.5049   -0.4396 O   0  0  0  0  0  0  0  0  0  0  0  0
   -0.5310   -2.3989   -1.1009 H   0  0  0  0  0  0  0  0  0  0  0  0
   -2.5667   -0.9290    0.4002 H   0  0  0  0  0  0  0  0  0  0  0  0
    0.2747   -0.1550    1.1613 H   0  0  0  0  0  0  0  0  0  0  0  0
   -1.9872    1.1468   -0.4403 H   0  0  0  0  0  0  0  0  0  0  0  0
   -1.4086    2.6939    1.3203 H   0  0  0  0  0  0  0  0  0  0  0  0
    0.3512    2.5732    0.9179 H   0  0  0  0  0  0  0  0  0  0  0  0
    0.2972   -0.5262   -2.4921 H   0  0  0  0  0  0  0  0  0  0  0  0
   -0.6437    0.7479    2.8175 H   0  0  0  0  0  0  0  0  0  0  0  0
   -1.7967    3.5912   -0.6616 H   0  0  0  0  0  0  0  0  0  0  0  0
    2.0857   -0.1797   -0.8801 H   0  0  0  0  0  0  0  0  0  0  0  0
   -1.9988   -0.4485   -2.4104 H   0  0  0  0  0  0  0  0  0  0  0  0
   -1.9495   -2.8915    1.1799 H   0  0  0  0  0  0  0  0  0  0  0  0
  1  2  1  0
  1  6  1  0
  1  8  1  0
  1 13  1  1
  2  3  1  0
  2  9  1  0
  2 14  1  6
  3  4  1  0
  3 10  1  0
  3 15  1  1
  4  5  1  0
  4 11  1  0
  4 16  1  6
  5 12  1  0
  5 17  1  1
  5 18  1  0
  6  7  1  0
  6 11  1  0
  6 19  1  6
 10 20  1  0
 12 21  1  0
  7 22  1  0
  8 23  1  0
  9 24  1  0
M  END
$$$$
GLUCANASE
     RDKit          3D

 24 24  0  0  0  0  0  0  0  0999 V2000
   -1.4909    1.6206    2.0803 C   0  0  2  0  0  0  0  0  0  0  0  0
   -0.4515    1.9839    1.0819 C   0  0  2  0  0  0  0  0  0  0  0  0
    0.6220    0.8981    1.1301 C   0  0  1  0  0  0  0  0  0  0  0  0
   -0.1614   -0.3674    0.8513 C   0  0  1  0  0  0  0  0  0  0  0  0
    0.7176   -1.4738    0.3347 C   0  0  1  0  0  0  0  0  0  0  0  0
   -1.2380    0.3145    2.7867 C   0  0  2  0  0  0  0  0  0  0  0  0
   -0.4209    0.4675    3.9142 O   0  0  0  0  0  0  0  0  0  0  0  0
   -2.7423    1.4993    1.4618 O   0  0  0  0  0  0  0  0  0  0  0  0
    0.1366    3.2049    1.2731 O   0  0  0  0  0  0  0  0  0  0  0  0
    1.6274    1.1337    0.2096 O   0  0  0  0  0  0  0  0  0  0  0  0
   -0.8426   -0.7129    1.9816 O   0  0  0  0  0  0  0  0  0  0  0  0
    1.3592   -1.0114   -0.8130 O   0  0  0  0  0  0  0  0  0  0  0  0
   -1.5835    2.4032    2.8615 H   0  0  0  0  0  0  0  0  0  0  0  0
   -0.8794    1.9544    0.0471 H   0  0  0  0  0  0  0  0  0  0  0  0
    1.0583    0.8206    2.1341 H   0  0  0  0  0  0  0  0  0  0  0  0
   -0.9163   -0.1803    0.0471 H   0  0  0  0  0  0  0  0  0  0  0  0
    1.4687   -1.8286    1.0517 H   0  0  0  0  0  0  0  0  0  0  0  0
    0.0858   -2.3121    0.0166 H   0  0  0  0  0  0  0  0  0  0  0  0
   -2.2311    0.0070    3.2240 H   0  0  0  0  0  0  0  0  0  0  0  0
    2.5200    1.0977    0.6352 H   0  0  0  0  0  0  0  0  0  0  0  0
    2.2530   -1.4105   -0.9437 H   0  0  0  0  0  0  0  0  0  0  0  0
   -0.2396    1.4291    4.1025 H   0  0  0  0  0  0  0  0  0  0  0  0
   -3.3136    1.0391    2.1411 H   0  0  0  0  0  0  0  0  0  0  0  0
    0.8475    3.3004    0.5873 H   0  0  0  0  0  0  0  0  0  0  0  0
  1  2  1  0
  1  6  1  0
  1  8  1  0
  1 13  1  1
  2  3  1  0
  2  9  1  0
  2 14  1  6
  3  4  1  0
  3 10  1  0
  3 15  1  1
  4  5  1  0
  4 11  1  0
  4 16  1  6
  5 12  1  0
  5 17  1  1
  5 18  1  0
  6  7  1  0
  6 11  1  0
  6 19  1  1
 10 20  1  0
 12 21  1  0
  7 22  1  0
  8 23  1  0
  9 24  1  0
M  END
$$$$
GLUCANASE
     RDKit          3D

 24 24  0  0  0  0  0  0  0  0999 V2000
   -0.9983    0.0862    0.7598 C   0  0  2  0  0  0  0  0  0  0  0  0
   -0.4661    1.4745    0.9394 C   0  0  2  0  0  0  0  0  0  0  0  0
    0.9676    1.6590    0.6695 C   0  0  1  0  0  0  0  0  0  0  0  0
    1.7068    0.5112    0.0996 C   0  0  1  0  0  0  0  0  0  0  0  0
    3.1706    0.4743    0.3970 C   0  0  1  0  0  0  0  0  0  0  0  0
   -0.1502   -0.6268   -0.2329 C   0  0  2  0  0  0  0  0  0  0  0  0
   -0.6095   -1.8646   -0.6214 O   0  0  0  0  0  0  0  0  0  0  0  0
   -2.3193    0.1015    0.2686 O   0  0  0  0  0  0  0  0  0  0  0  0
   -0.7441    1.8826    2.2587 O   0  0  0  0  0  0  0  0  0  0  0  0
    1.0953    2.7487   -0.2215 O   0  0  0  0  0  0  0  0  0  0  0  0
    1.1143   -0.7451    0.3469 O   0  0  0  0  0  0  0  0  0  0  0  0
    3.4553    0.1475    1.7230 O   0  0  0  0  0  0  0  0  0  0  0  0
   -1.0103   -0.4130    1.7540 H   0  0  0  0  0  0  0  0  0  0  0  0
   -1.1270    2.1431    0.3142 H   0  0  0  0  0  0  0  0  0  0  0  0
    1.5211    2.0104    1.5867 H   0  0  0  0  0  0  0  0  0  0  0  0
    1.6281    0.5895   -1.0255 H   0  0  0  0  0  0  0  0  0  0  0  0
    3.6544   -0.2228   -0.3131 H   0  0  0  0  0  0  0  0  0  0  0  0
    3.5623    1.4984    0.1836 H   0  0  0  0  0  0  0  0  0  0  0  0
   -0.1168    0.0187   -1.1517 H   0  0  0  0  0  0  0  0  0  0  0  0
    0.5030    2.5598   -1.0148 H   0  0  0  0  0  0  0  0  0  0  0  0
    3.8152   -0.7813    1.8069 H   0  0  0  0  0  0  0  0  0  0  0  0
   -1.5650   -2.0255   -0.5128 H   0  0  0  0  0  0  0  0  0  0  0  0
   -2.5357    0.9898   -0.1319 H   0  0  0  0  0  0  0  0  0  0  0  0
   -0.2114    2.6988    2.4530 H   0  0  0  0  0  0  0  0  0  0  0  0
  1  2  1  0
  1  6  1  0
  1  8  1  0
  1 13  1  1
  2  3  1  0
  2  9  1  0
  2 14  1  6
  3  4  1  0
  3 10  1  0
  3 15  1  1
  4  5  1  0
  4 11  1  0
  4 16  1  6
  5 12  1  0
  5 17  1  6
  5 18  1  0
  6  7  1  0
  6 11  1  0
  6 19  1  6
 10 20  1  0
 12 21  1  0
  7 22  1  0
  8 23  1  0
  9 24  1  0
M  END
$$$$
GLUCANASE
     RDKit          3D

 24 24  0  0  0  0  0  0  0  0999 V2000
    1.3673   -2.2404   -0.2525 C   0  0  2  0  0  0  0  0  0  0  0  0
    2.2981   -1.1273   -0.6469 C   0  0  2  0  0  0  0  0  0  0  0  0
    1.9510    0.0543    0.2293 C   0  0  1  0  0  0  0  0  0  0  0  0
    0.5751    0.5046   -0.1348 C   0  0  1  0  0  0  0  0  0  0  0  0
    0.6960    1.6034   -1.1841 C   0  0  1  0  0  0  0  0  0  0  0  0
   -0.0411   -1.7442   -0.2394 C   0  0  2  0  0  0  0  0  0  0  0  0
   -0.7848   -2.5805   -1.1036 O   0  0  0  0  0  0  0  0  0  0  0  0
    1.7238   -2.6867    1.0174 O   0  0  0  0  0  0  0  0  0  0  0  0
    2.1943   -0.7646   -1.9689 O   0  0  0  0  0  0  0  0  0  0  0  0
    1.9177   -0.3640    1.5755 O   0  0  0  0  0  0  0  0  0  0  0  0
   -0.2408   -0.4678   -0.6687 O   0  0  0  0  0  0  0  0  0  0  0  0
    1.5089    2.6058   -0.6919 O   0  0  0  0  0  0  0  0  0  0  0  0
    1.5157   -3.1126   -0.9288 H   0  0  0  0  0  0  0  0  0  0  0  0
    3.3720   -1.4100   -0.4893 H   0  0  0  0  0  0  0  0  0  0  0  0
    2.6950    0.8644    0.0949 H   0  0  0  0  0  0  0  0  0  0  0  0
    0.0588    1.0187    0.7281 H   0  0  0  0  0  0  0  0  0  0  0  0
    1.0143    1.2441   -2.1638 H   0  0  0  0  0  0  0  0  0  0  0  0
   -0.3537    1.9810   -1.3304 H   0  0  0  0  0  0  0  0  0  0  0  0
   -0.5016   -1.9237    0.7686 H   0  0  0  0  0  0  0  0  0  0  0  0
    1.2263    0.1679    2.0283 H   0  0  0  0  0  0  0  0  0  0  0  0
    2.4054    2.6040   -1.1515 H   0  0  0  0  0  0  0  0  0  0  0  0
   -0.4330   -2.6141   -2.0108 H   0  0  0  0  0  0  0  0  0  0  0  0
    2.6783   -2.8413    1.1441 H   0  0  0  0  0  0  0  0  0  0  0  0
    1.3932   -1.1120   -2.4216 H   0  0  0  0  0  0  0  0  0  0  0  0
  1  2  1  0
  1  6  1  0
  1  8  1  0
  1 13  1  6
  2  3  1  0
  2  9  1  0
  2 14  1  1
  3  4  1  0
  3 10  1  0
  3 15  1  1
  4  5  1  0
  4 11  1  0
  4 16  1  1
  5 12  1  0
  5 17  1  6
  5 18  1  0
  6  7  1  0
  6 11  1  0
  6 19  1  1
 10 20  1  0
 12 21  1  0
  7 22  1  0
  8 23  1  0
  9 24  1  0
M  END
$$$$
GLUCANASE
     RDKit          3D

 24 24  0  0  0  0  0  0  0  0999 V2000
    0.2464   -2.1953   -1.1504 C   0  0  2  0  0  0  0  0  0  0  0  0
   -0.8853   -1.2276   -1.3591 C   0  0  2  0  0  0  0  0  0  0  0  0
   -0.7163    0.0884   -0.6752 C   0  0  1  0  0  0  0  0  0  0  0  0
    0.7277    0.4732   -0.4351 C   0  0  1  0  0  0  0  0  0  0  0  0
    1.0728    0.4237    1.0525 C   0  0  1  0  0  0  0  0  0  0  0  0
    1.6005   -1.5469   -1.2433 C   0  0  2  0  0  0  0  0  0  0  0  0
    2.4843   -2.1122   -0.3094 O   0  0  0  0  0  0  0  0  0  0  0  0
    0.0940   -3.2014   -2.1123 O   0  0  0  0  0  0  0  0  0  0  0  0
   -2.0537   -1.8200   -0.8374 O   0  0  0  0  0  0  0  0  0  0  0  0
   -1.3901    1.0390   -1.4567 O   0  0  0  0  0  0  0  0  0  0  0  0
    1.6109   -0.1896   -1.2353 O   0  0  0  0  0  0  0  0  0  0  0  0
    1.1178   -0.8504    1.5574 O   0  0  0  0  0  0  0  0  0  0  0  0
    0.0972   -2.7232   -0.1806 H   0  0  0  0  0  0  0  0  0  0  0  0
   -1.0692   -1.1374   -2.4573 H   0  0  0  0  0  0  0  0  0  0  0  0
   -1.2218    0.1055    0.3225 H   0  0  0  0  0  0  0  0  0  0  0  0
    0.7965    1.5511   -0.7006 H   0  0  0  0  0  0  0  0  0  0  0  0
    2.1107    0.8398    1.1179 H   0  0  0  0  0  0  0  0  0  0  0  0
    0.4089    1.1204    1.5803 H   0  0  0  0  0  0  0  0  0  0  0  0
    2.0327   -1.8517   -2.2309 H   0  0  0  0  0  0  0  0  0  0  0  0
   -1.1792    0.9016   -2.4242 H   0  0  0  0  0  0  0  0  0  0  0  0
    0.6780   -0.9412    2.4384 H   0  0  0  0  0  0  0  0  0  0  0  0
    3.2464   -1.4798   -0.2289 H   0  0  0  0  0  0  0  0  0  0  0  0
    0.4054   -2.8485   -2.9871 H   0  0  0  0  0  0  0  0  0  0  0  0
   -2.8694   -1.4153   -1.2240 H   0  0  0  0  0  0  0  0  0  0  0  0
  1  2  1  0
  1  6  1  0
  1  8  1  0
  1 13  1  1
  2  3  1  0
  2  9  1  0
  2 14  1  6
  3  4  1  0
  3 10  1  0
  3 15  1  1
  4  5  1  0
  4 11  1  0
  4 16  1  6
  5 12  1  0
  5 17  1  6
  5 18  1  0
  6  7  1  0
  6 11  1  0
  6 19  1  6
 10 20  1  0
 12 21  1  0
  7 22  1  0
  8 23  1  0
  9 24  1  0
M  END
$$$$
GLUCANASE
     RDKit          3D

 24 24  0  0  0  0  0  0  0  0999 V2000
   -0.6973    1.6144   -1.1117 C   0  0  2  0  0  0  0  0  0  0  0  0
   -0.9244    0.3221   -1.8616 C   0  0  2  0  0  0  0  0  0  0  0  0
    0.0911   -0.6728   -1.3266 C   0  0  1  0  0  0  0  0  0  0  0  0
   -0.1804   -0.8547    0.1333 C   0  0  1  0  0  0  0  0  0  0  0  0
    1.0852   -0.9240    0.9573 C   0  0  1  0  0  0  0  0  0  0  0  0
   -0.7635    1.3867    0.3769 C   0  0  2  0  0  0  0  0  0  0  0  0
    0.3890    1.9137    0.9452 O   0  0  0  0  0  0  0  0  0  0  0  0
   -1.6170    2.5871   -1.5025 O   0  0  0  0  0  0  0  0  0  0  0  0
   -0.6978    0.5850   -3.2173 O   0  0  0  0  0  0  0  0  0  0  0  0
   -0.1042   -1.8746   -1.9893 O   0  0  0  0  0  0  0  0  0  0  0  0
   -1.0196    0.0765    0.6958 O   0  0  0  0  0  0  0  0  0  0  0  0
    0.7338   -1.2979    2.2505 O   0  0  0  0  0  0  0  0  0  0  0  0
    0.3164    1.9872   -1.4178 H   0  0  0  0  0  0  0  0  0  0  0  0
   -1.9577   -0.0238   -1.7517 H   0  0  0  0  0  0  0  0  0  0  0  0
    1.0993   -0.2721   -1.5332 H   0  0  0  0  0  0  0  0  0  0  0  0
   -0.6846   -1.8514    0.3035 H   0  0  0  0  0  0  0  0  0  0  0  0
    1.7279   -1.7729    0.5815 H   0  0  0  0  0  0  0  0  0  0  0  0
    1.7007   -0.0210    0.9171 H   0  0  0  0  0  0  0  0  0  0  0  0
   -1.6089    1.9774    0.8316 H   0  0  0  0  0  0  0  0  0  0  0  0
    0.0099   -1.7895   -2.9575 H   0  0  0  0  0  0  0  0  0  0  0  0
   -0.2198   -1.1223    2.4010 H   0  0  0  0  0  0  0  0  0  0  0  0
    0.2989    2.1176    1.9100 H   0  0  0  0  0  0  0  0  0  0  0  0
   -1.1693    3.4602   -1.5894 H   0  0  0  0  0  0  0  0  0  0  0  0
   -1.4771    0.3620   -3.7615 H   0  0  0  0  0  0  0  0  0  0  0  0
  1  2  1  0
  1  6  1  0
  1  8  1  0
  1 13  1  1
  2  3  1  0
  2  9  1  0
  2 14  1  6
  3  4  1  0
  3 10  1  0
  3 15  1  1
  4  5  1  0
  4 11  1  0
  4 16  1  6
  5 12  1  0
  5 17  1  6
  5 18  1  0
  6  7  1  0
  6 11  1  0
  6 19  1  1
 10 20  1  0
 12 21  1  0
  7 22  1  0
  8 23  1  0
  9 24  1  0
M  END
$$$$
GLUCANASE
     RDKit          3D

 24 24  0  0  0  0  0  0  0  0999 V2000
    0.1099   -0.2821    1.6978 C   0  0  2  0  0  0  0  0  0  0  0  0
    0.2517    0.7940    0.6581 C   0  0  2  0  0  0  0  0  0  0  0  0
   -0.4606    0.4499   -0.6212 C   0  0  1  0  0  0  0  0  0  0  0  0
   -0.5835   -1.0177   -0.8585 C   0  0  1  0  0  0  0  0  0  0  0  0
    0.6225   -1.6184   -1.5709 C   0  0  1  0  0  0  0  0  0  0  0  0
   -1.1586   -1.0506    1.3827 C   0  0  2  0  0  0  0  0  0  0  0  0
   -1.3543   -1.9521    2.4304 O   0  0  0  0  0  0  0  0  0  0  0  0
    0.0202    0.3077    2.9633 O   0  0  0  0  0  0  0  0  0  0  0  0
    1.5747    1.1271    0.3862 O   0  0  0  0  0  0  0  0  0  0  0  0
   -1.7563    1.0066   -0.5589 O   0  0  0  0  0  0  0  0  0  0  0  0
   -1.0038   -1.7624    0.2161 O   0  0  0  0  0  0  0  0  0  0  0  0
    1.7269   -1.7486   -0.7692 O   0  0  0  0  0  0  0  0  0  0  0  0
    0.9907   -0.9573    1.7595 H   0  0  0  0  0  0  0  0  0  0  0  0
   -0.2112    1.7240    1.0814 H   0  0  0  0  0  0  0  0  0  0  0  0
    0.0457    0.8953   -1.4936 H   0  0  0  0  0  0  0  0  0  0  0  0
   -1.4135   -1.1150   -1.6216 H   0  0  0  0  0  0  0  0  0  0  0  0
    0.3165   -2.6205   -1.9318 H   0  0  0  0  0  0  0  0  0  0  0  0
    0.8072   -0.9979   -2.4707 H   0  0  0  0  0  0  0  0  0  0  0  0
   -1.9938   -0.3333    1.3751 H   0  0  0  0  0  0  0  0  0  0  0  0
   -2.2650    0.8529   -1.3869 H   0  0  0  0  0  0  0  0  0  0  0  0
    2.5787   -1.4528   -1.1375 H   0  0  0  0  0  0  0  0  0  0  0  0
   -2.0879   -2.5758    2.2133 H   0  0  0  0  0  0  0  0  0  0  0  0
    0.9533    0.5024    3.2727 H   0  0  0  0  0  0  0  0  0  0  0  0
    1.7181    1.1614   -0.6081 H   0  0  0  0  0  0  0  0  0  0  0  0
  1  2  1  0
  1  6  1  0
  1  8  1  0
  1 13  1  1
  2  3  1  0
  2  9  1  0
  2 14  1  1
  3  4  1  0
  3 10  1  0
  3 15  1  6
  4  5  1  0
  4 11  1  0
  4 16  1  6
  5 12  1  0
  5 17  1  6
  5 18  1  0
  6  7  1  0
  6 11  1  0
  6 19  1  6
 10 20  1  0
 12 21  1  0
  7 22  1  0
  8 23  1  0
  9 24  1  0
M  END
$$$$
GLUCANASE
     RDKit          3D

 24 24  0  0  0  0  0  0  0  0999 V2000
    0.5431    1.3368   -0.6283 C   0  0  2  0  0  0  0  0  0  0  0  0
   -0.4978    0.3848   -0.1124 C   0  0  2  0  0  0  0  0  0  0  0  0
    0.1038   -0.7242    0.7043 C   0  0  1  0  0  0  0  0  0  0  0  0
    1.4850   -1.0899    0.2069 C   0  0  1  0  0  0  0  0  0  0  0  0
    1.3083   -1.8841   -1.0616 C   0  0  1  0  0  0  0  0  0  0  0  0
    1.7274    1.2231    0.3338 C   0  0  2  0  0  0  0  0  0  0  0  0
    2.6755    2.2024   -0.0168 O   0  0  0  0  0  0  0  0  0  0  0  0
    0.0821    2.6526   -0.6967 O   0  0  0  0  0  0  0  0  0  0  0  0
   -1.2190   -0.0860   -1.1965 O   0  0  0  0  0  0  0  0  0  0  0  0
    0.1827   -0.4235    2.0653 O   0  0  0  0  0  0  0  0  0  0  0  0
    2.3151   -0.0054    0.0935 O   0  0  0  0  0  0  0  0  0  0  0  0
    0.4398   -2.9552   -0.7971 O   0  0  0  0  0  0  0  0  0  0  0  0
    0.9555    1.0697   -1.6202 H   0  0  0  0  0  0  0  0  0  0  0  0
   -1.1593    0.9746    0.5594 H   0  0  0  0  0  0  0  0  0  0  0  0
   -0.4951   -1.6738    0.6344 H   0  0  0  0  0  0  0  0  0  0  0  0
    1.9418   -1.7842    0.9425 H   0  0  0  0  0  0  0  0  0  0  0  0
    0.8192   -1.3138   -1.8741 H   0  0  0  0  0  0  0  0  0  0  0  0
    2.2447   -2.3248   -1.4519 H   0  0  0  0  0  0  0  0  0  0  0  0
    1.4402    1.4195    1.3669 H   0  0  0  0  0  0  0  0  0  0  0  0
   -0.5629    0.1894    2.3210 H   0  0  0  0  0  0  0  0  0  0  0  0
    0.7546   -3.4610   -0.0046 H   0  0  0  0  0  0  0  0  0  0  0  0
    3.1825    2.5071    0.7830 H   0  0  0  0  0  0  0  0  0  0  0  0
    0.2941    3.0613   -1.5921 H   0  0  0  0  0  0  0  0  0  0  0  0
   -1.9066   -0.7420   -0.9897 H   0  0  0  0  0  0  0  0  0  0  0  0
  1  2  1  0
  1  6  1  0
  1  8  1  0
  1 13  1  6
  2  3  1  0
  2  9  1  0
  2 14  1  1
  3  4  1  0
  3 10  1  0
  3 15  1  1
  4  5  1  0
  4 11  1  0
  4 16  1  1
  5 12  1  0
  5 17  1  6
  5 18  1  0
  6  7  1  0
  6 11  1  0
  6 19  1  1
 10 20  1  0
 12 21  1  0
  7 22  1  0
  8 23  1  0
  9 24  1  0
M  END
$$$$
GLUCANASE
     RDKit          3D

 24 24  0  0  0  0  0  0  0  0999 V2000
   -0.0439    1.0687    2.7179 C   0  0  2  0  0  0  0  0  0  0  0  0
    0.3453   -0.3748    2.4833 C   0  0  2  0  0  0  0  0  0  0  0  0
    1.5327   -0.3180    1.5674 C   0  0  1  0  0  0  0  0  0  0  0  0
    1.2113    0.4149    0.2893 C   0  0  1  0  0  0  0  0  0  0  0  0
    0.4764   -0.5104   -0.6887 C   0  0  1  0  0  0  0  0  0  0  0  0
   -0.2348    1.8445    1.4696 C   0  0  2  0  0  0  0  0  0  0  0  0
   -1.5653    1.7069    1.0319 O   0  0  0  0  0  0  0  0  0  0  0  0
    0.9004    1.6913    3.5252 O   0  0  0  0  0  0  0  0  0  0  0  0
   -0.7386   -1.0280    1.9449 O   0  0  0  0  0  0  0  0  0  0  0  0
    2.5193    0.4309    2.2222 O   0  0  0  0  0  0  0  0  0  0  0  0
    0.6083    1.6123    0.4480 O   0  0  0  0  0  0  0  0  0  0  0  0
    0.4179    0.1012   -1.9286 O   0  0  0  0  0  0  0  0  0  0  0  0
   -1.0242    1.0529    3.2768 H   0  0  0  0  0  0  0  0  0  0  0  0
    0.6666   -0.7997    3.4377 H   0  0  0  0  0  0  0  0  0  0  0  0
    1.9292   -1.3072    1.2828 H   0  0  0  0  0  0  0  0  0  0  0  0
    2.1897    0.5981   -0.2112 H   0  0  0  0  0  0  0  0  0  0  0  0
    1.0732   -1.4384   -0.8078 H   0  0  0  0  0  0  0  0  0  0  0  0
   -0.5566   -0.7272   -0.3698 H   0  0  0  0  0  0  0  0  0  0  0  0
   -0.1411    2.9250    1.7499 H   0  0  0  0  0  0  0  0  0  0  0  0
    3.1858    0.8135    1.6233 H   0  0  0  0  0  0  0  0  0  0  0  0
    1.1344    0.7781   -1.9638 H   0  0  0  0  0  0  0  0  0  0  0  0
   -1.6212    2.1598    0.1443 H   0  0  0  0  0  0  0  0  0  0  0  0
    1.2028    1.1548    4.2860 H   0  0  0  0  0  0  0  0  0  0  0  0
   -1.5823   -0.5414    2.1737 H   0  0  0  0  0  0  0  0  0  0  0  0
  1  2  1  0
  1  6  1  0
  1  8  1  0
  1 13  1  1
  2  3  1  0
  2  9  1  0
  2 14  1  1
  3  4  1  0
  3 10  1  0
  3 15  1  6
  4  5  1  0
  4 11  1  0
  4 16  1  6
  5 12  1  0
  5 17  1  6
  5 18  1  0
  6  7  1  0
  6 11  1  0
  6 19  1  1
 10 20  1  0
 12 21  1  0
  7 22  1  0
  8 23  1  0
  9 24  1  0
M  END
$$$$
GLUCANASE
     RDKit          3D

 24 24  0  0  0  0  0  0  0  0999 V2000
    0.4830   -2.3528    0.9181 C   0  0  2  0  0  0  0  0  0  0  0  0
   -0.6623   -1.3592    0.7029 C   0  0  2  0  0  0  0  0  0  0  0  0
   -0.1008   -0.0745    1.3326 C   0  0  1  0  0  0  0  0  0  0  0  0
    0.9223    0.3622    0.3194 C   0  0  1  0  0  0  0  0  0  0  0  0
    1.4946    1.7390    0.6142 C   0  0  1  0  0  0  0  0  0  0  0  0
    1.7881   -1.8146    0.4832 C   0  0  2  0  0  0  0  0  0  0  0  0
    2.6988   -2.0160    1.5338 O   0  0  0  0  0  0  0  0  0  0  0  0
    0.1583   -3.5568    0.2660 O   0  0  0  0  0  0  0  0  0  0  0  0
   -1.8211   -1.7769    1.2959 O   0  0  0  0  0  0  0  0  0  0  0  0
   -1.0843    0.8558    1.5419 O   0  0  0  0  0  0  0  0  0  0  0  0
    1.8805   -0.5420    0.0805 O   0  0  0  0  0  0  0  0  0  0  0  0
    2.2309    2.1144   -0.5264 O   0  0  0  0  0  0  0  0  0  0  0  0
    0.4503   -2.5812    2.0086 H   0  0  0  0  0  0  0  0  0  0  0  0
   -0.7426   -1.2423   -0.4029 H   0  0  0  0  0  0  0  0  0  0  0  0
    0.4173   -0.3209    2.2863 H   0  0  0  0  0  0  0  0  0  0  0  0
    0.3460    0.5086   -0.6401 H   0  0  0  0  0  0  0  0  0  0  0  0
    0.7252    2.5069    0.7574 H   0  0  0  0  0  0  0  0  0  0  0  0
    2.2088    1.7020    1.4721 H   0  0  0  0  0  0  0  0  0  0  0  0
    2.1697   -2.4697   -0.3449 H   0  0  0  0  0  0  0  0  0  0  0  0
   -1.4910    0.6885    2.4294 H   0  0  0  0  0  0  0  0  0  0  0  0
    1.5564    2.2748   -1.2611 H   0  0  0  0  0  0  0  0  0  0  0  0
    3.5845   -1.7239    1.2215 H   0  0  0  0  0  0  0  0  0  0  0  0
   -0.4262   -4.1220    0.8416 H   0  0  0  0  0  0  0  0  0  0  0  0
   -2.5613   -1.2564    0.8469 H   0  0  0  0  0  0  0  0  0  0  0  0
  1  2  1  0
  1  6  1  0
  1  8  1  0
  1 13  1  1
  2  3  1  0
  2  9  1  0
  2 14  1  6
  3  4  1  0
  3 10  1  0
  3 15  1  1
  4  5  1  0
  4 11  1  0
  4 16  1  6
  5 12  1  0
  5 17  1  1
  5 18  1  0
  6  7  1  0
  6 11  1  0
  6 19  1  6
 10 20  1  0
 12 21  1  0
  7 22  1  0
  8 23  1  0
  9 24  1  0
M  END
$$$$
GLUCANASE
     RDKit          3D

 24 24  0  0  0  0  0  0  0  0999 V2000
   -0.2922   -0.7267    0.9367 C   0  0  2  0  0  0  0  0  0  0  0  0
    0.9649   -0.0145    0.4794 C   0  0  2  0  0  0  0  0  0  0  0  0
    0.7185    0.6884   -0.8469 C   0  0  1  0  0  0  0  0  0  0  0  0
   -0.3372    1.7306   -0.5767 C   0  0  1  0  0  0  0  0  0  0  0  0
   -0.8734    2.3215   -1.8662 C   0  0  1  0  0  0  0  0  0  0  0  0
   -1.4878   -0.1067    0.2333 C   0  0  2  0  0  0  0  0  0  0  0  0
   -1.6948   -0.7207   -0.9962 O   0  0  0  0  0  0  0  0  0  0  0  0
   -0.4915   -0.5979    2.2961 O   0  0  0  0  0  0  0  0  0  0  0  0
    2.0648   -0.8448    0.4272 O   0  0  0  0  0  0  0  0  0  0  0  0
    1.9286    1.2971   -1.1931 O   0  0  0  0  0  0  0  0  0  0  0  0
   -1.3840    1.2666    0.1715 O   0  0  0  0  0  0  0  0  0  0  0  0
   -1.5639    1.3761   -2.6058 O   0  0  0  0  0  0  0  0  0  0  0  0
   -0.2681   -1.8102    0.6287 H   0  0  0  0  0  0  0  0  0  0  0  0
    1.1308    0.8036    1.2157 H   0  0  0  0  0  0  0  0  0  0  0  0
    0.4572   -0.0159   -1.6482 H   0  0  0  0  0  0  0  0  0  0  0  0
    0.1897    2.5576   -0.0356 H   0  0  0  0  0  0  0  0  0  0  0  0
   -1.5771    3.1448   -1.6288 H   0  0  0  0  0  0  0  0  0  0  0  0
   -0.0624    2.6995   -2.5244 H   0  0  0  0  0  0  0  0  0  0  0  0
   -2.3839   -0.3198    0.8848 H   0  0  0  0  0  0  0  0  0  0  0  0
    2.6234    0.6138   -0.9955 H   0  0  0  0  0  0  0  0  0  0  0  0
   -2.5292    1.4621   -2.4466 H   0  0  0  0  0  0  0  0  0  0  0  0
   -1.2605   -1.6161   -1.0062 H   0  0  0  0  0  0  0  0  0  0  0  0
   -1.1410    0.1263    2.4785 H   0  0  0  0  0  0  0  0  0  0  0  0
    2.0495   -1.4322    1.2212 H   0  0  0  0  0  0  0  0  0  0  0  0
  1  2  1  0
  1  6  1  0
  1  8  1  0
  1 13  1  1
  2  3  1  0
  2  9  1  0
  2 14  1  1
  3  4  1  0
  3 10  1  0
  3 15  1  6
  4  5  1  0
  4 11  1  0
  4 16  1  1
  5 12  1  0
  5 17  1  1
  5 18  1  0
  6  7  1  0
  6 11  1  0
  6 19  1  1
 10 20  1  0
 12 21  1  0
  7 22  1  0
  8 23  1  0
  9 24  1  0
M  END
$$$$
GLUCANASE
     RDKit          3D

 24 24  0  0  0  0  0  0  0  0999 V2000
   -1.3594    0.0815   -0.2912 C   0  0  2  0  0  0  0  0  0  0  0  0
   -0.5364   -1.1215   -0.6518 C   0  0  2  0  0  0  0  0  0  0  0  0
    0.9295   -0.9780   -0.2917 C   0  0  1  0  0  0  0  0  0  0  0  0
    0.9408   -0.3979    1.0979 C   0  0  1  0  0  0  0  0  0  0  0  0
    2.2571   -0.5417    1.7894 C   0  0  1  0  0  0  0  0  0  0  0  0
   -0.8296    0.9042    0.8329 C   0  0  2  0  0  0  0  0  0  0  0  0
   -1.3909    2.1778    0.7563 O   0  0  0  0  0  0  0  0  0  0  0  0
   -2.6241   -0.3951    0.0792 O   0  0  0  0  0  0  0  0  0  0  0  0
   -0.6769   -1.3297   -2.0408 O   0  0  0  0  0  0  0  0  0  0  0  0
    1.5536   -2.1937   -0.4111 O   0  0  0  0  0  0  0  0  0  0  0  0
    0.5540    0.9348    0.9340 O   0  0  0  0  0  0  0  0  0  0  0  0
    3.3068    0.0548    1.1379 O   0  0  0  0  0  0  0  0  0  0  0  0
   -1.5490    0.7017   -1.2010 H   0  0  0  0  0  0  0  0  0  0  0  0
   -0.9089   -2.0143   -0.1046 H   0  0  0  0  0  0  0  0  0  0  0  0
    1.3471   -0.2478   -1.0386 H   0  0  0  0  0  0  0  0  0  0  0  0
    0.1699   -0.9157    1.6919 H   0  0  0  0  0  0  0  0  0  0  0  0
    2.1154   -0.1044    2.8162 H   0  0  0  0  0  0  0  0  0  0  0  0
    2.4630   -1.6278    1.8667 H   0  0  0  0  0  0  0  0  0  0  0  0
   -1.1740    0.4262    1.7962 H   0  0  0  0  0  0  0  0  0  0  0  0
    2.4694   -2.2128   -0.0879 H   0  0  0  0  0  0  0  0  0  0  0  0
    4.1339   -0.4668    1.3556 H   0  0  0  0  0  0  0  0  0  0  0  0
   -1.1855    2.7422    1.5285 H   0  0  0  0  0  0  0  0  0  0  0  0
   -2.8295   -0.2631    1.0374 H   0  0  0  0  0  0  0  0  0  0  0  0
   -1.0814   -2.1959   -2.2421 H   0  0  0  0  0  0  0  0  0  0  0  0
  1  2  1  0
  1  6  1  0
  1  8  1  0
  1 13  1  6
  2  3  1  0
  2  9  1  0
  2 14  1  1
  3  4  1  0
  3 10  1  0
  3 15  1  6
  4  5  1  0
  4 11  1  0
  4 16  1  1
  5 12  1  0
  5 17  1  1
  5 18  1  0
  6  7  1  0
  6 11  1  0
  6 19  1  1
 10 20  1  0
 12 21  1  0
  7 22  1  0
  8 23  1  0
  9 24  1  0
M  END
$$$$
