@<TRIPOS>MOLECULE
/Users/xuhangdai/Desktop/Projects/OptimalTransport/extra_bio_ligands_boltz_af3/boltz_results_5bvs_EIC/5bvs_EIC_model_19_chainB.pdb
 20 19 0 0 0
SMALL
GASTEIGER

@<TRIPOS>ATOM
      1  C41       -0.4820   -4.2440   -2.1150 C.3     0  LIG0        0.0000
      2  C45       -0.2880   -5.7500   -2.1570 C.3     0  LIG0        0.0000
      3  C49        1.1730   -6.1540   -2.0150 C.3     0  LIG0        0.0003
      4  C47        1.4110   -7.6120   -2.3450 C.3     0  LIG0        0.0047
      5  C43        0.8910   -8.5510   -1.2710 C.3     0  LIG0        0.0257
      6  C38       -0.2790   -9.3550   -1.7470 C.2     0  LIG0       -0.0304
      7  C36       -1.4240   -9.4750   -0.9460 C.2     0  LIG0       -0.0260
      8  C40       -1.5600   -8.6110    0.2750 C.3     0  LIG0        0.0513
      9  C37       -2.7340   -8.9660    1.1470 C.2     0  LIG0       -0.0260
     10  C39       -3.3260   -7.9530    1.8620 C.2     0  LIG0       -0.0304
     11  C44       -2.9670   -6.5400    1.4610 C.3     0  LIG0        0.0257
     12  C48       -3.3250   -5.4810    2.4930 C.3     0  LIG0        0.0047
     13  C51       -3.0090   -4.0730    1.9970 C.3     0  LIG0        0.0003
     14  C52       -1.5220   -3.7630    1.9770 C.3     0  LIG0        0.0000
     15  C50       -1.1990   -2.4580    1.2610 C.3     0  LIG0        0.0006
     16  C46        0.2000   -1.9230    1.5540 C.3     0  LIG0        0.0118
     17  C42        1.2980   -2.8770    1.1480 C.3     0  LIG0        0.1141
     18  C35        2.3800   -2.2890    0.2390 C.2     0  LIG0        0.3649
     19  O33        2.1370   -1.2750   -0.4420 O.co2   0  LIG0       -0.2457
     20  O34        3.4800   -2.8590    0.1800 O.co2   0  LIG0       -0.2457
@<TRIPOS>BOND
     1     4     3    1
     2     4     5    1
     3     2     1    1
     4     2     3    1
     5     6     5    1
     6     6     7    2
     7     7     8    1
     8    19    18   ar
     9    20    18   ar
    10    18    17    1
    11     8     9    1
    12     9    10    2
    13    17    16    1
    14    15    16    1
    15    15    14    1
    16    11    10    1
    17    11    12    1
    18    14    13    1
    19    13    12    1
