@<TRIPOS>MOLECULE
/Users/xuhangdai/Desktop/Projects/OptimalTransport/extra_bio_ligands_boltz_af3/boltz_results_5bvs_EIC/5bvs_EIC_model_32_chainB.pdb
 20 19 0 0 0
SMALL
GASTEIGER

@<TRIPOS>ATOM
      1  C41       -6.3980   -2.8650    1.0010 C.3     0  LIG0        0.0000
      2  C45       -7.4900   -3.3790    1.9270 C.3     0  LIG0        0.0000
      3  C49       -8.7880   -2.6690    1.6900 C.3     0  LIG0        0.0003
      4  C47       -9.7690   -2.8770    2.7940 C.3     0  LIG0        0.0047
      5  C43       -9.1440   -2.6000    4.1370 C.3     0  LIG0        0.0257
      6  C38       -9.4860   -1.2430    4.6700 C.2     0  LIG0       -0.0304
      7  C36       -8.5690   -0.5550    5.4610 C.2     0  LIG0       -0.0260
      8  C40       -7.1470   -1.0210    5.5280 C.3     0  LIG0        0.0513
      9  C37       -6.3350   -0.2570    6.5320 C.2     0  LIG0       -0.0260
     10  C39       -4.9980   -0.0800    6.3190 C.2     0  LIG0       -0.0304
     11  C44       -4.4190   -0.5290    5.0050 C.3     0  LIG0        0.0257
     12  C48       -2.9250   -0.3100    4.9110 C.3     0  LIG0        0.0047
     13  C51       -2.4120   -0.4790    3.4980 C.3     0  LIG0        0.0003
     14  C52       -2.2980   -1.9210    3.0740 C.3     0  LIG0        0.0000
     15  C50       -1.9720   -2.0660    1.5990 C.3     0  LIG0        0.0006
     16  C46       -1.6010   -3.4800    1.2040 C.3     0  LIG0        0.0118
     17  C42       -2.7520   -4.4410    1.3470 C.3     0  LIG0        0.1141
     18  C35       -3.1320   -5.1850    0.0720 C.2     0  LIG0        0.3649
     19  O33       -2.7720   -4.7410   -1.0310 O.co2   0  LIG0       -0.2457
     20  O34       -3.8160   -6.2100    0.1620 O.co2   0  LIG0       -0.2457
@<TRIPOS>BOND
     1    19    18   ar
     2    18    20   ar
     3    18    17    1
     4     1     2    1
     5    16    17    1
     6    16    15    1
     7    15    14    1
     8     3     2    1
     9     3     4    1
    10     4     5    1
    11    14    13    1
    12    13    12    1
    13     5     6    1
    14     6     7    2
    15    12    11    1
    16    11    10    1
    17     7     8    1
    18     8     9    1
    19    10     9    2
