@<TRIPOS>MOLECULE
/Users/xuhangdai/Desktop/Projects/OptimalTransport/extra_bio_ligands_boltz_af3/boltz_results_5bvs_EIC/5bvs_EIC_model_6_chainB.pdb
 20 19 0 0 0
SMALL
GASTEIGER

@<TRIPOS>ATOM
      1  C41       -0.1680   -0.6290    5.1160 C.3     0  LIG0        0.0000
      2  C45        0.2520   -1.3930    6.3600 C.3     0  LIG0        0.0000
      3  C49       -0.7900   -1.3070    7.4620 C.3     0  LIG0        0.0003
      4  C47       -1.2430   -2.6800    7.8670 C.3     0  LIG0        0.0047
      5  C43       -2.0360   -3.3000    6.7430 C.3     0  LIG0        0.0257
      6  C38       -1.6650   -4.7240    6.5950 C.2     0  LIG0       -0.0307
      7  C36       -1.9880   -5.3920    5.4380 C.2     0  LIG0       -0.0307
      8  C40       -2.5140   -4.6120    4.2800 C.3     0  LIG0        0.0257
      9  C37       -3.0090   -5.5170    3.2000 C.3     0  LIG0        0.0047
     10  C39       -2.9300   -5.0760    1.9230 C.3     0  LIG0        0.0003
     11  C44       -1.9600   -3.9690    1.6410 C.3     0  LIG0        0.0000
     12  C48       -2.5550   -2.9300    0.7430 C.3     0  LIG0        0.0000
     13  C51       -1.6320   -1.7530    0.6740 C.3     0  LIG0        0.0000
     14  C52       -2.3790   -0.4920    0.8500 C.3     0  LIG0        0.0000
     15  C50       -1.4310    0.6670    1.0260 C.3     0  LIG0        0.0006
     16  C46       -2.1810    1.9620    1.1550 C.3     0  LIG0        0.0118
     17  C42       -2.9110    2.0360    2.4600 C.3     0  LIG0        0.1141
     18  C35       -2.3160    3.0250    3.4420 C.2     0  LIG0        0.3649
     19  O33       -1.2630    3.6200    3.1580 O.co2   0  LIG0       -0.2457
     20  O34       -2.9010    3.2160    4.5130 O.co2   0  LIG0       -0.2457
@<TRIPOS>BOND
     1    13    12    1
     2    13    14    1
     3    12    11    1
     4    14    15    1
     5    15    16    1
     6    16    17    1
     7    11    10    1
     8    10     9    1
     9    17    18    1
    10    19    18   ar
    11     9     8    1
    12    18    20   ar
    13     8     7    1
    14     1     2    1
    15     7     6    2
    16     2     3    1
    17     6     5    1
    18     5     4    1
    19     3     4    1
