@<TRIPOS>MOLECULE
/Users/xuhangdai/Desktop/Projects/OptimalTransport/extra_bio_ligands_boltz_af3/boltz_results_5bvs_EIC/5bvs_EIC_model_44_chainB.pdb
 20 19 0 0 0
SMALL
GASTEIGER

@<TRIPOS>ATOM
      1  C41        4.0760   -0.9470   -4.1260 C.3     0  LIG0        0.0000
      2  C45        5.0960   -1.2300   -5.2090 C.3     0  LIG0        0.0000
      3  C49        4.5190   -2.0450   -6.3520 C.3     0  LIG0        0.0003
      4  C47        5.1940   -1.6900   -7.6460 C.3     0  LIG0        0.0047
      5  C43        4.6930   -0.3500   -8.1350 C.3     0  LIG0        0.0257
      6  C38        5.8220    0.5390   -8.5110 C.2     0  LIG0       -0.0304
      7  C36        5.6850    1.9120   -8.3650 C.2     0  LIG0       -0.0260
      8  C40        4.4660    2.4360   -7.6810 C.3     0  LIG0        0.0513
      9  C37        4.4740    3.9280   -7.5920 C.2     0  LIG0       -0.0260
     10  C39        3.9330    4.5000   -6.4950 C.2     0  LIG0       -0.0304
     11  C44        3.5740    3.5840   -5.3630 C.3     0  LIG0        0.0257
     12  C48        2.7850    4.2890   -4.2900 C.3     0  LIG0        0.0047
     13  C51        2.5650    3.3820   -3.1040 C.3     0  LIG0        0.0003
     14  C52        1.4470    2.4070   -3.3360 C.3     0  LIG0        0.0000
     15  C50        1.3780    1.3830   -2.2230 C.3     0  LIG0        0.0006
     16  C46        0.0680    0.6330   -2.2150 C.3     0  LIG0        0.0118
     17  C42       -0.0710   -0.2650   -3.4130 C.3     0  LIG0        0.1141
     18  C35       -0.1180   -1.7480   -3.0930 C.2     0  LIG0        0.3649
     19  O33       -0.5080   -2.5250   -3.9490 O.co2   0  LIG0       -0.2457
     20  O34        0.2610   -2.1480   -1.9680 O.co2   0  LIG0       -0.2457
@<TRIPOS>BOND
     1     6     7    2
     2     6     5    1
     3     7     8    1
     4     5     4    1
     5     8     9    1
     6     4     3    1
     7     9    10    2
     8    10    11    1
     9     3     2    1
    10    11    12    1
    11     2     1    1
    12    12    13    1
    13    19    18   ar
    14    17    18    1
    15    17    16    1
    16    14    13    1
    17    14    15    1
    18    18    20   ar
    19    15    16    1
