@<TRIPOS>MOLECULE
/Users/xuhangdai/Desktop/Projects/OptimalTransport/extra_bio_ligands_boltz_af3/boltz_results_5bvs_EIC/5bvs_EIC_model_39_chainB.pdb
 20 19 0 0 0
SMALL
GASTEIGER

@<TRIPOS>ATOM
      1  C41       -0.3970   -3.5310    3.0420 C.3     0  LIG0        0.0000
      2  C45       -0.1110   -4.9750    3.4210 C.3     0  LIG0        0.0000
      3  C49       -0.9230   -5.4510    4.6030 C.3     0  LIG0        0.0003
      4  C47       -2.1290   -6.2220    4.1560 C.3     0  LIG0        0.0047
      5  C43       -3.1580   -5.2730    3.6280 C.3     0  LIG0        0.0257
      6  C38       -4.1860   -5.9870    2.8400 C.2     0  LIG0       -0.0304
      7  C36       -5.0850   -5.2400    2.1170 C.2     0  LIG0       -0.0260
      8  C40       -4.9010   -3.7630    2.0810 C.3     0  LIG0        0.0513
      9  C37       -5.8840   -3.1090    1.1710 C.2     0  LIG0       -0.0260
     10  C39       -5.4890   -2.0190    0.4810 C.2     0  LIG0       -0.0304
     11  C44       -4.0460   -1.6360    0.5720 C.3     0  LIG0        0.0257
     12  C48       -3.7190   -0.4560   -0.3030 C.3     0  LIG0        0.0047
     13  C51       -2.2290   -0.2570   -0.4070 C.3     0  LIG0        0.0003
     14  C52       -1.6340    0.2720    0.8640 C.3     0  LIG0        0.0000
     15  C50       -0.1370    0.3960    0.7590 C.3     0  LIG0        0.0006
     16  C46        0.4500    1.1770    1.9080 C.3     0  LIG0        0.0118
     17  C42        0.3200    0.4350    3.2080 C.3     0  LIG0        0.1141
     18  C35        1.6400    0.1000    3.8770 C.2     0  LIG0        0.3649
     19  O33        1.6610   -0.1350    5.0740 O.co2   0  LIG0       -0.2457
     20  O34        2.6800    0.0440    3.1830 O.co2   0  LIG0       -0.2457
@<TRIPOS>BOND
     1    13    12    1
     2    13    14    1
     3    12    11    1
     4    10    11    1
     5    10     9    2
     6    15    14    1
     7    15    16    1
     8     9     8    1
     9    16    17    1
    10     8     7    1
    11     7     6    2
    12     6     5    1
    13     1     2    1
    14    20    18   ar
    15    17    18    1
    16     2     3    1
    17     5     4    1
    18    18    19   ar
    19     4     3    1
