@<TRIPOS>MOLECULE
/Users/xuhangdai/Desktop/Projects/OptimalTransport/extra_bio_ligands_boltz_af3/boltz_results_5bvs_EIC/5bvs_EIC_model_0_chainB.pdb
 20 19 0 0 0
SMALL
GASTEIGER

@<TRIPOS>ATOM
      1  C41        2.3390   -6.9360    2.1970 C.3     0  LIG0        0.0000
      2  C45        2.2890   -8.1790    3.0730 C.3     0  LIG0        0.0000
      3  C49        0.9050   -8.8100    3.1360 C.3     0  LIG0        0.0003
      4  C47        0.7670   -9.9580    2.1690 C.3     0  LIG0        0.0047
      5  C43        0.4030   -9.4540    0.7970 C.3     0  LIG0        0.0257
      6  C38        0.9170  -10.3890   -0.2420 C.2     0  LIG0       -0.0304
      7  C36        0.6960  -10.1090   -1.5640 C.2     0  LIG0       -0.0260
      8  C40       -0.0040   -8.8490   -1.9230 C.3     0  LIG0        0.0513
      9  C37       -0.2270   -8.7580   -3.3970 C.2     0  LIG0       -0.0260
     10  C39       -0.3750   -7.5430   -3.9540 C.2     0  LIG0       -0.0304
     11  C44       -0.1090   -6.3540   -3.0810 C.3     0  LIG0        0.0257
     12  C48       -0.5050   -5.0650   -3.7520 C.3     0  LIG0        0.0047
     13  C51       -0.0730   -3.8710   -2.9340 C.3     0  LIG0        0.0003
     14  C52       -1.0100   -3.6070   -1.7890 C.3     0  LIG0        0.0000
     15  C50       -0.5300   -2.4520   -0.9360 C.3     0  LIG0        0.0006
     16  C46       -1.5830   -1.9980    0.0540 C.3     0  LIG0        0.0118
     17  C42       -1.9320   -3.0910    1.0330 C.3     0  LIG0        0.1141
     18  C35       -1.8720   -2.6680    2.4950 C.2     0  LIG0        0.3649
     19  O33       -2.5940   -3.2260    3.3050 O.co2   0  LIG0       -0.2457
     20  O34       -1.0680   -1.7670    2.8350 O.co2   0  LIG0       -0.2457
@<TRIPOS>BOND
     1    10     9    2
     2    10    11    1
     3    12    11    1
     4    12    13    1
     5     9     8    1
     6    13    14    1
     7     8     7    1
     8    14    15    1
     9     7     6    2
    10    15    16    1
    11     6     5    1
    12    16    17    1
    13     5     4    1
    14    17    18    1
    15     4     3    1
    16     1     2    1
    17    18    20   ar
    18    18    19   ar
    19     2     3    1
