@<TRIPOS>MOLECULE
/Users/xuhangdai/Desktop/Projects/OptimalTransport/extra_bio_ligands_boltz_af3/boltz_results_5bvs_EIC/5bvs_EIC_model_42_chainB.pdb
 20 19 0 0 0
SMALL
GASTEIGER

@<TRIPOS>ATOM
      1  C41       -1.9090   -6.4650   -4.7020 C.3     0  LIG0        0.0000
      2  C45       -2.0610   -7.9710   -4.7770 C.3     0  LIG0        0.0000
      3  C49       -2.6920   -8.4470   -6.0690 C.3     0  LIG0        0.0003
      4  C47       -1.6710   -9.0690   -6.9810 C.3     0  LIG0        0.0047
      5  C43       -0.8480   -7.9890   -7.6080 C.3     0  LIG0        0.0257
      6  C38        0.3660   -8.5380   -8.2590 C.2     0  LIG0       -0.0304
      7  C36        1.3150   -7.6460   -8.6780 C.2     0  LIG0       -0.0260
      8  C40        1.1150   -6.2100   -8.3390 C.3     0  LIG0        0.0513
      9  C37        2.2280   -5.3650   -8.8460 C.2     0  LIG0       -0.0260
     10  C39        2.5600   -4.2640   -8.1490 C.2     0  LIG0       -0.0304
     11  C44        1.9400   -4.0940   -6.8040 C.3     0  LIG0        0.0257
     12  C48        2.2190   -2.7410   -6.2240 C.3     0  LIG0        0.0047
     13  C51        1.7550   -2.6690   -4.7940 C.3     0  LIG0        0.0003
     14  C52        0.3310   -2.2510   -4.7010 C.3     0  LIG0        0.0000
     15  C50       -0.1540   -2.2790   -3.2770 C.3     0  LIG0        0.0006
     16  C46       -1.5340   -1.6950   -3.1450 C.3     0  LIG0        0.0118
     17  C42       -2.5430   -2.5030   -3.8980 C.3     0  LIG0        0.1141
     18  C35       -3.6740   -3.0310   -3.0370 C.2     0  LIG0        0.3649
     19  O33       -3.5280   -3.0920   -1.8070 O.co2   0  LIG0       -0.2457
     20  O34       -4.7120   -3.4070   -3.5870 O.co2   0  LIG0       -0.2457
@<TRIPOS>BOND
     1     9     8    1
     2     9    10    2
     3     7     8    1
     4     7     6    2
     5     6     5    1
     6    10    11    1
     7     5     4    1
     8     4     3    1
     9    11    12    1
    10    12    13    1
    11     3     2    1
    12    13    14    1
    13     2     1    1
    14    14    15    1
    15    17    16    1
    16    17    18    1
    17    20    18   ar
    18    15    16    1
    19    18    19   ar
