@<TRIPOS>MOLECULE
/Users/xuhangdai/Desktop/Projects/OptimalTransport/extra_bio_ligands_boltz_af3/boltz_results_5bvs_EIC/5bvs_EIC_model_22_chainB.pdb
 20 19 0 0 0
SMALL
GASTEIGER

@<TRIPOS>ATOM
      1  C41        4.4800    0.6680    1.8810 C.3     0  LIG0        0.0000
      2  C45        5.9630    0.5310    1.6550 C.3     0  LIG0        0.0000
      3  C49        6.7550    0.9260    2.8810 C.3     0  LIG0        0.0003
      4  C47        7.9320    0.0300    3.0580 C.3     0  LIG0        0.0047
      5  C43        7.4840   -1.4000    3.1820 C.3     0  LIG0        0.0257
      6  C38        8.2910   -2.2750    2.3020 C.2     0  LIG0       -0.0304
      7  C36        7.7320   -3.4020    1.7320 C.2     0  LIG0       -0.0260
      8  C40        6.2590   -3.6280    1.8060 C.3     0  LIG0        0.0513
      9  C37        5.8890   -4.9840    1.2920 C.2     0  LIG0       -0.0260
     10  C39        4.6810   -5.1640    0.7220 C.2     0  LIG0       -0.0304
     11  C44        3.8680   -3.9410    0.4270 C.3     0  LIG0        0.0257
     12  C48        2.4380   -4.2740    0.0900 C.3     0  LIG0        0.0047
     13  C51        1.6900   -3.0490   -0.3530 C.3     0  LIG0        0.0003
     14  C52        1.2460   -2.1990    0.7990 C.3     0  LIG0        0.0000
     15  C50        0.8230   -0.8210    0.3530 C.3     0  LIG0        0.0006
     16  C46       -0.0430   -0.1210    1.3670 C.3     0  LIG0        0.0118
     17  C42        0.6770    0.1470    2.6580 C.3     0  LIG0        0.1141
     18  C35        0.8480    1.6160    3.0160 C.2     0  LIG0        0.3649
     19  O33        1.2510    1.9160    4.1250 O.co2   0  LIG0       -0.2457
     20  O34        0.5890    2.4870    2.1580 O.co2   0  LIG0       -0.2457
@<TRIPOS>BOND
     1    13    12    1
     2    13    14    1
     3    12    11    1
     4    15    14    1
     5    15    16    1
     6    11    10    1
     7    10     9    2
     8     9     8    1
     9    16    17    1
    10     2     1    1
    11     2     3    1
    12     7     8    1
    13     7     6    2
    14    20    18   ar
    15     6     5    1
    16    17    18    1
    17     3     4    1
    18    18    19   ar
    19     4     5    1
