@<TRIPOS>MOLECULE
/Users/xuhangdai/Desktop/Projects/OptimalTransport/extra_bio_ligands_boltz_af3/boltz_results_5bvs_EIC/5bvs_EIC_model_43_chainB.pdb
 20 19 0 0 0
SMALL
GASTEIGER

@<TRIPOS>ATOM
      1  C41       -1.4240   -1.7750    4.6150 C.3     0  LIG0        0.0000
      2  C45       -1.9100   -2.0590    6.0220 C.3     0  LIG0        0.0000
      3  C49       -3.3800   -1.7200    6.1990 C.3     0  LIG0        0.0003
      4  C47       -3.9750   -2.5130    7.3390 C.3     0  LIG0        0.0047
      5  C43       -4.1560   -3.9620    6.9330 C.3     0  LIG0        0.0257
      6  C38       -3.4840   -4.8760    7.9010 C.2     0  LIG0       -0.0304
      7  C36       -2.9420   -6.0810    7.4570 C.2     0  LIG0       -0.0260
      8  C40       -2.8750   -6.3560    5.9900 C.3     0  LIG0        0.0513
      9  C37       -2.2170   -7.6720    5.7020 C.2     0  LIG0       -0.0260
     10  C39       -1.4430   -7.7790    4.5910 C.2     0  LIG0       -0.0304
     11  C44       -1.1750   -6.5140    3.8300 C.3     0  LIG0        0.0257
     12  C48       -0.2430   -6.7330    2.6700 C.3     0  LIG0        0.0047
     13  C51        0.3260   -5.4150    2.1960 C.3     0  LIG0        0.0003
     14  C52       -0.6380   -4.6620    1.3230 C.3     0  LIG0        0.0000
     15  C50       -0.2100   -3.2190    1.1610 C.3     0  LIG0        0.0006
     16  C46       -0.8980   -2.5500   -0.0040 C.3     0  LIG0        0.0118
     17  C42       -2.3110   -2.1590    0.3250 C.3     0  LIG0        0.1141
     18  C35       -2.5420   -0.6690    0.5320 C.2     0  LIG0        0.3649
     19  O33       -3.6730   -0.2650    0.7620 O.co2   0  LIG0       -0.2457
     20  O34       -1.5690    0.1200    0.4770 O.co2   0  LIG0       -0.2457
@<TRIPOS>BOND
     1    16    17    1
     2    16    15    1
     3    17    18    1
     4    20    18   ar
     5    18    19   ar
     6    15    14    1
     7    14    13    1
     8    13    12    1
     9    12    11    1
    10    11    10    1
    11    10     9    2
    12     1     2    1
    13     9     8    1
    14     8     7    1
    15     2     3    1
    16     3     4    1
    17     5     4    1
    18     5     6    1
    19     7     6    2
