@<TRIPOS>MOLECULE
/Users/xuhangdai/Desktop/Projects/OptimalTransport/extra_bio_ligands_boltz_af3/boltz_results_5bvs_EIC/5bvs_EIC_model_45_chainB.pdb
 20 19 0 0 0
SMALL
GASTEIGER

@<TRIPOS>ATOM
      1  C41        1.4040   -3.7990    3.1750 C.3     0  LIG0        0.0000
      2  C45        1.6700   -4.8760    4.2130 C.3     0  LIG0        0.0000
      3  C49        1.5850   -6.2760    3.6380 C.3     0  LIG0        0.0003
      4  C47        2.9170   -6.9540    3.6640 C.3     0  LIG0        0.0047
      5  C43        3.8170   -6.3520    2.6250 C.3     0  LIG0        0.0257
      6  C38        5.1760   -6.1850    3.1740 C.2     0  LIG0       -0.0304
      7  C36        6.0870   -5.4230    2.4890 C.2     0  LIG0       -0.0260
      8  C40        5.6730   -4.7400    1.2400 C.3     0  LIG0        0.0513
      9  C37        6.7580   -3.8510    0.7410 C.2     0  LIG0       -0.0260
     10  C39        6.4480   -2.6010    0.3670 C.2     0  LIG0       -0.0304
     11  C44        5.0690   -2.1280    0.6650 C.3     0  LIG0        0.0257
     12  C48        4.6780   -0.9850   -0.2280 C.3     0  LIG0        0.0047
     13  C51        3.2690   -0.5570    0.0500 C.3     0  LIG0        0.0003
     14  C52        2.2910   -1.4510   -0.6270 C.3     0  LIG0        0.0000
     15  C50        0.8870   -1.0630   -0.2710 C.3     0  LIG0        0.0006
     16  C46       -0.0910   -1.5680   -1.2800 C.3     0  LIG0        0.0118
     17  C42       -0.1880   -3.0580   -1.2440 C.3     0  LIG0        0.1141
     18  C35       -1.5320   -3.5660   -0.7670 C.2     0  LIG0        0.3649
     19  O33       -2.3070   -2.7960   -0.1860 O.co2   0  LIG0       -0.2457
     20  O34       -1.8140   -4.7480   -0.9620 O.co2   0  LIG0       -0.2457
@<TRIPOS>BOND
     1    16    17    1
     2    16    15    1
     3    17    18    1
     4    20    18   ar
     5    18    19   ar
     6    14    15    1
     7    14    13    1
     8    12    13    1
     9    12    11    1
    10    10    11    1
    11    10     9    2
    12     9     8    1
    13     8     7    1
    14     7     6    2
    15     5     6    1
    16     5     4    1
    17     1     2    1
    18     3     4    1
    19     3     2    1
