@<TRIPOS>MOLECULE
/Users/xuhangdai/Desktop/Projects/OptimalTransport/extra_bio_ligands_boltz_af3/boltz_results_5bvs_EIC/5bvs_EIC_model_25_chainB.pdb
 20 19 0 0 0
SMALL
GASTEIGER

@<TRIPOS>ATOM
      1  C41       -2.6420    2.8160   -3.6740 C.3     0  LIG0        0.0000
      2  C45       -3.1380    4.2580   -3.6720 C.3     0  LIG0        0.0000
      3  C49       -4.5280    4.3410   -4.2430 C.3     0  LIG0        0.0003
      4  C47       -4.6100    5.2610   -5.4200 C.3     0  LIG0        0.0047
      5  C43       -3.5400    4.9250   -6.4270 C.3     0  LIG0        0.0257
      6  C38       -4.1200    4.3990   -7.6960 C.2     0  LIG0       -0.0304
      7  C36       -3.2970    3.7190   -8.5790 C.2     0  LIG0       -0.0260
      8  C40       -1.9230    3.3330   -8.1340 C.3     0  LIG0        0.0513
      9  C37       -1.1240    2.7160   -9.2410 C.2     0  LIG0       -0.0260
     10  C39       -0.2140    1.7600   -8.9300 C.2     0  LIG0       -0.0304
     11  C44       -0.2030    1.2730   -7.5100 C.3     0  LIG0        0.0257
     12  C48        0.8900    0.2660   -7.2490 C.3     0  LIG0        0.0047
     13  C51        0.7420   -0.3450   -5.8750 C.3     0  LIG0        0.0003
     14  C52        1.1820    0.5920   -4.7820 C.3     0  LIG0        0.0000
     15  C50        0.7170    0.1210   -3.4220 C.3     0  LIG0        0.0006
     16  C46        1.4750    0.7780   -2.2950 C.3     0  LIG0        0.0118
     17  C42        1.1480    2.2410   -2.1620 C.3     0  LIG0        0.1141
     18  C35        0.3860    2.6090   -0.8960 C.2     0  LIG0        0.3649
     19  O33       -0.0010    1.7170   -0.1240 O.co2   0  LIG0       -0.2457
     20  O34        0.1530    3.8020   -0.6690 O.co2   0  LIG0       -0.2457
@<TRIPOS>BOND
     1     9    10    2
     2     9     8    1
     3    10    11    1
     4     7     8    1
     5     7     6    2
     6     6     5    1
     7    11    12    1
     8    12    13    1
     9     5     4    1
    10    13    14    1
    11     4     3    1
    12    14    15    1
    13     3     2    1
    14     1     2    1
    15    15    16    1
    16    16    17    1
    17    17    18    1
    18    18    20   ar
    19    18    19   ar
