@<TRIPOS>MOLECULE
/Users/xuhangdai/Desktop/Projects/OptimalTransport/extra_bio_ligands_boltz_af3/boltz_results_5bvs_EIC/5bvs_EIC_model_16_chainB.pdb
 20 19 0 0 0
SMALL
GASTEIGER

@<TRIPOS>ATOM
      1  C41        3.5280    6.2220    0.8930 C.3     0  LIG0        0.0000
      2  C45        3.4630    7.7150    1.1860 C.3     0  LIG0        0.0000
      3  C49        3.9990    8.0730    2.5620 C.3     0  LIG0        0.0003
      4  C47        5.3710    8.6860    2.4790 C.3     0  LIG0        0.0047
      5  C43        6.3940    7.6140    2.2080 C.3     0  LIG0        0.0257
      6  C38        7.4580    8.1260    1.3030 C.2     0  LIG0       -0.0304
      7  C36        8.4320    7.2620    0.8670 C.2     0  LIG0       -0.0260
      8  C40        8.3370    5.8330    1.2640 C.3     0  LIG0        0.0513
      9  C37        9.4390    5.0310    0.6600 C.2     0  LIG0       -0.0260
     10  C39        9.2050    3.7450    0.3650 C.2     0  LIG0       -0.0304
     11  C44        7.7990    3.2540    0.5210 C.3     0  LIG0        0.0257
     12  C48        7.6580    1.8170    0.0990 C.3     0  LIG0        0.0047
     13  C51        6.2080    1.4210    0.0290 C.3     0  LIG0        0.0003
     14  C52        5.6060    1.2640    1.3910 C.3     0  LIG0        0.0000
     15  C50        4.1410    0.9280    1.3020 C.3     0  LIG0        0.0006
     16  C46        3.5490    0.6160    2.6520 C.3     0  LIG0        0.0118
     17  C42        3.4990    1.8390    3.5300 C.3     0  LIG0        0.1141
     18  C35        2.1100    2.1540    4.0590 C.2     0  LIG0        0.3649
     19  O33        1.1110    1.7890    3.4210 O.co2   0  LIG0       -0.2457
     20  O34        2.0030    2.7900    5.1160 O.co2   0  LIG0       -0.2457
@<TRIPOS>BOND
     1    13    12    1
     2    13    14    1
     3    12    11    1
     4    10    11    1
     5    10     9    2
     6     9     8    1
     7     7     8    1
     8     7     6    2
     9     1     2    1
    10     2     3    1
    11    15    14    1
    12    15    16    1
    13     6     5    1
    14     5     4    1
    15     4     3    1
    16    16    17    1
    17    19    18   ar
    18    17    18    1
    19    18    20   ar
