@<TRIPOS>MOLECULE
/Users/xuhangdai/Desktop/Projects/OptimalTransport/extra_bio_ligands_boltz_af3/boltz_results_5bvs_EIC/5bvs_EIC_model_9_chainB.pdb
 20 19 0 0 0
SMALL
GASTEIGER

@<TRIPOS>ATOM
      1  C41        0.4860    2.5050    4.3440 C.3     0  LIG0        0.0000
      2  C45        0.1820    2.2960    5.8020 C.3     0  LIG0        0.0000
      3  C49        1.0460    3.1690    6.6810 C.3     0  LIG0        0.0003
      4  C47        0.5220    3.1640    8.0790 C.3     0  LIG0        0.0047
      5  C43       -0.8780    3.7210    8.1000 C.3     0  LIG0        0.0257
      6  C38       -1.6930    3.1150    9.1840 C.2     0  LIG0       -0.0304
      7  C36       -3.0540    2.9430    9.0000 C.2     0  LIG0       -0.0260
      8  C40       -3.6340    3.1320    7.6370 C.3     0  LIG0        0.0513
      9  C37       -5.1200    2.9370    7.6280 C.2     0  LIG0       -0.0260
     10  C39       -5.7040    2.3830    6.5420 C.2     0  LIG0       -0.0304
     11  C44       -4.8050    1.8020    5.4910 C.3     0  LIG0        0.0257
     12  C48       -5.5620    1.3590    4.2650 C.3     0  LIG0        0.0047
     13  C51       -4.6870    0.5480    3.3440 C.3     0  LIG0        0.0003
     14  C52       -3.8370    1.4060    2.4590 C.3     0  LIG0        0.0000
     15  C50       -2.8370    0.5910    1.6720 C.3     0  LIG0        0.0006
     16  C46       -2.1750    1.3740    0.5680 C.3     0  LIG0        0.0118
     17  C42       -1.3440    2.5100    1.0910 C.3     0  LIG0        0.1141
     18  C35        0.1330    2.4420    0.7300 C.2     0  LIG0        0.3649
     19  O33        0.6210    1.3760    0.3270 O.co2   0  LIG0       -0.2457
     20  O34        0.8240    3.4610    0.8700 O.co2   0  LIG0       -0.2457
@<TRIPOS>BOND
     1    19    18   ar
     2    16    17    1
     3    16    15    1
     4    18    20   ar
     5    18    17    1
     6    15    14    1
     7    14    13    1
     8    13    12    1
     9    12    11    1
    10     1     2    1
    11    11    10    1
    12     2     3    1
    13    10     9    2
    14     3     4    1
    15     9     8    1
    16     8     7    1
    17     4     5    1
    18     5     6    1
    19     7     6    2
