@<TRIPOS>MOLECULE
/Users/xuhangdai/Desktop/Projects/OptimalTransport/extra_bio_ligands_boltz_af3/boltz_results_5bvs_EIC/5bvs_EIC_model_30_chainB.pdb
 20 19 0 0 0
SMALL
GASTEIGER

@<TRIPOS>ATOM
      1  C41       -0.1760    3.3970   -4.7300 C.3     0  LIG0        0.0000
      2  C45       -0.3860    4.8680   -5.0580 C.3     0  LIG0        0.0000
      3  C49       -0.0110    5.1850   -6.4930 C.3     0  LIG0        0.0003
      4  C47       -1.2010    5.6990   -7.2500 C.3     0  LIG0        0.0047
      5  C43       -2.1830    4.5720   -7.4620 C.3     0  LIG0        0.0257
      6  C38       -3.5570    5.1120   -7.5980 C.2     0  LIG0       -0.0304
      7  C36       -4.6150    4.2340   -7.6030 C.2     0  LIG0       -0.0260
      8  C40       -4.3310    2.7860   -7.3820 C.3     0  LIG0        0.0513
      9  C37       -5.5970    1.9910   -7.3070 C.2     0  LIG0       -0.0260
     10  C39       -5.6370    0.9450   -6.4540 C.2     0  LIG0       -0.0304
     11  C44       -4.4850    0.8180   -5.5140 C.3     0  LIG0        0.0257
     12  C48       -4.5500   -0.4490   -4.7160 C.3     0  LIG0        0.0047
     13  C51       -3.4690   -0.4310   -3.6710 C.3     0  LIG0        0.0003
     14  C52       -2.2110   -1.0610   -4.1720 C.3     0  LIG0        0.0000
     15  C50       -1.0260   -0.5610   -3.3890 C.3     0  LIG0        0.0006
     16  C46        0.1780   -1.4320   -3.6100 C.3     0  LIG0        0.0118
     17  C42        0.9780   -0.9560   -4.7840 C.3     0  LIG0        0.1141
     18  C35        2.2850   -0.2760   -4.4200 C.2     0  LIG0        0.3649
     19  O33        3.0420    0.0770   -5.3100 O.co2   0  LIG0       -0.2457
     20  O34        2.5620   -0.0790   -3.2160 O.co2   0  LIG0       -0.2457
@<TRIPOS>BOND
     1     7     6    2
     2     7     8    1
     3     6     5    1
     4     5     4    1
     5     8     9    1
     6     9    10    2
     7     4     3    1
     8     3     2    1
     9    10    11    1
    10    11    12    1
    11    19    18   ar
    12     2     1    1
    13    17    18    1
    14    17    16    1
    15    12    13    1
    16    18    20   ar
    17    14    13    1
    18    14    15    1
    19    16    15    1
