@<TRIPOS>MOLECULE
/Users/xuhangdai/Desktop/Projects/OptimalTransport/extra_bio_ligands_boltz_af3/boltz_results_5bvs_EIC/5bvs_EIC_model_41_chainB.pdb
 20 19 0 0 0
SMALL
GASTEIGER

@<TRIPOS>ATOM
      1  C41       -0.7450    5.2690   -3.4510 C.3     0  LIG0        0.0000
      2  C45       -0.5410    6.3370   -4.4900 C.3     0  LIG0        0.0000
      3  C49       -1.7240    7.2620   -4.6520 C.3     0  LIG0        0.0003
      4  C47       -1.2700    8.6870   -4.6470 C.3     0  LIG0        0.0047
      5  C43       -0.7890    9.0510   -3.2730 C.3     0  LIG0        0.0257
      6  C38        0.3080   10.0420   -3.3230 C.2     0  LIG0       -0.0304
      7  C36        1.0720   10.2360   -2.2010 C.2     0  LIG0       -0.0260
      8  C40        0.8660    9.3260   -1.0430 C.3     0  LIG0        0.0513
      9  C37        1.8040    9.6280    0.0720 C.2     0  LIG0       -0.0260
     10  C39        2.2910    8.6040    0.8000 C.2     0  LIG0       -0.0304
     11  C44        2.0300    7.2200    0.3110 C.3     0  LIG0        0.0257
     12  C48        2.4010    6.1800    1.3280 C.3     0  LIG0        0.0047
     13  C51        2.2710    4.7890    0.7740 C.3     0  LIG0        0.0003
     14  C52        0.8510    4.3440    0.6750 C.3     0  LIG0        0.0000
     15  C50        0.7530    2.9390    0.1610 C.3     0  LIG0        0.0006
     16  C46       -0.6250    2.3580    0.2950 C.3     0  LIG0        0.0118
     17  C42       -1.6350    3.1120   -0.5110 C.3     0  LIG0        0.1141
     18  C35       -2.4590    2.2660   -1.4550 C.2     0  LIG0        0.3649
     19  O33       -2.0040    1.1930   -1.8760 O.co2   0  LIG0       -0.2457
     20  O34       -3.5660    2.6870   -1.8010 O.co2   0  LIG0       -0.2457
@<TRIPOS>BOND
     1     3     4    1
     2     3     2    1
     3     4     5    1
     4     2     1    1
     5     6     5    1
     6     6     7    2
     7     7     8    1
     8    19    18   ar
     9    20    18   ar
    10    18    17    1
    11     8     9    1
    12    17    16    1
    13     9    10    2
    14    15    16    1
    15    15    14    1
    16    11    10    1
    17    11    12    1
    18    14    13    1
    19    13    12    1
