@<TRIPOS>MOLECULE
/Users/xuhangdai/Desktop/Projects/OptimalTransport/extra_bio_ligands_boltz_af3/boltz_results_5bvs_EIC/5bvs_EIC_model_31_chainB.pdb
 20 19 0 0 0
SMALL
GASTEIGER

@<TRIPOS>ATOM
      1  C41       -2.4120    4.3100   -2.8920 C.3     0  LIG0        0.0000
      2  C45       -2.0620    4.7900   -4.2830 C.3     0  LIG0        0.0000
      3  C49       -3.0520    5.8050   -4.8270 C.3     0  LIG0        0.0003
      4  C47       -2.3240    7.0150   -5.3230 C.3     0  LIG0        0.0047
      5  C43       -1.7090    7.7380   -4.1550 C.3     0  LIG0        0.0257
      6  C38       -0.4550    8.4250   -4.5500 C.2     0  LIG0       -0.0307
      7  C36        0.4270    8.8060   -3.5590 C.2     0  LIG0       -0.0307
      8  C40        0.1990    8.2990   -2.1730 C.3     0  LIG0        0.0257
      9  C37        1.1450    8.9090   -1.1970 C.3     0  LIG0        0.0047
     10  C39        1.5840    8.1490   -0.1660 C.3     0  LIG0        0.0003
     11  C44        1.4300    6.6660   -0.2820 C.3     0  LIG0        0.0000
     12  C48        0.8370    6.0810    0.9560 C.3     0  LIG0        0.0000
     13  C51        0.5430    4.6330    0.7170 C.3     0  LIG0        0.0000
     14  C52       -0.6690    4.2180    1.4450 C.3     0  LIG0        0.0000
     15  C50       -1.1240    2.8640    0.9690 C.3     0  LIG0        0.0006
     16  C46       -2.4460    2.4800    1.5670 C.3     0  LIG0        0.0118
     17  C42       -3.5580    3.3120    1.0140 C.3     0  LIG0        0.1141
     18  C35       -4.5220    2.5410    0.1390 C.2     0  LIG0        0.3649
     19  O33       -4.2930    1.3520   -0.1330 O.co2   0  LIG0       -0.2457
     20  O34       -5.5220    3.1250   -0.2980 O.co2   0  LIG0       -0.2457
@<TRIPOS>BOND
     1     4     3    1
     2     4     5    1
     3     3     2    1
     4     6     5    1
     5     6     7    2
     6     2     1    1
     7     7     8    1
     8     8     9    1
     9     9    10    1
    10    20    18   ar
    11    11    10    1
    12    11    12    1
    13    19    18   ar
    14    18    17    1
    15    13    12    1
    16    13    14    1
    17    15    14    1
    18    15    16    1
    19    17    16    1
