@<TRIPOS>MOLECULE
/Users/xuhangdai/Desktop/Projects/OptimalTransport/extra_bio_ligands_boltz_af3/boltz_results_5bvs_EIC/5bvs_EIC_model_15_chainB.pdb
 20 19 0 0 0
SMALL
GASTEIGER

@<TRIPOS>ATOM
      1  C41        2.1810    5.7940   -1.8990 C.3     0  LIG0        0.0000
      2  C45        3.0110    6.7310   -2.7650 C.3     0  LIG0        0.0000
      3  C49        2.1850    7.3750   -3.8630 C.3     0  LIG0        0.0003
      4  C47        2.4140    8.8600   -3.8970 C.3     0  LIG0        0.0047
      5  C43        1.5620    9.5330   -2.8480 C.3     0  LIG0        0.0257
      6  C38        2.3760   10.4860   -2.0420 C.2     0  LIG0       -0.0304
      7  C36        1.9820   10.8010   -0.7480 C.2     0  LIG0       -0.0260
      8  C40        0.8920   10.0010   -0.1130 C.3     0  LIG0        0.0513
      9  C37        0.4810   10.5660    1.2100 C.2     0  LIG0       -0.0260
     10  C39        0.1340    9.6990    2.1930 C.2     0  LIG0       -0.0304
     11  C44        0.5200    8.2690    1.9820 C.3     0  LIG0        0.0257
     12  C48       -0.3250    7.3250    2.7830 C.3     0  LIG0        0.0047
     13  C51        0.1290    5.9130    2.5410 C.3     0  LIG0        0.0003
     14  C52       -0.7690    5.2140    1.5790 C.3     0  LIG0        0.0000
     15  C50       -0.1280    3.9610    1.0300 C.3     0  LIG0        0.0006
     16  C46       -1.1600    3.0100    0.4730 C.3     0  LIG0        0.0118
     17  C42       -1.6600    3.4500   -0.8690 C.3     0  LIG0        0.1141
     18  C35       -1.0600    2.7030   -2.0550 C.2     0  LIG0        0.3649
     19  O33       -1.3510    3.0510   -3.1880 O.co2   0  LIG0       -0.2457
     20  O34       -0.2710    1.7530   -1.8410 O.co2   0  LIG0       -0.2457
@<TRIPOS>BOND
     1     4     3    1
     2     4     5    1
     3     3     2    1
     4    19    18   ar
     5     5     6    1
     6     2     1    1
     7    18    20   ar
     8    18    17    1
     9     6     7    2
    10    17    16    1
    11     7     8    1
    12     8     9    1
    13    16    15    1
    14    15    14    1
    15     9    10    2
    16    14    13    1
    17    11    10    1
    18    11    12    1
    19    13    12    1
