@<TRIPOS>MOLECULE
/Users/xuhangdai/Desktop/Projects/OptimalTransport/extra_bio_ligands_boltz_af3/boltz_results_5bvs_EIC/5bvs_EIC_model_48_chainB.pdb
 20 19 0 0 0
SMALL
GASTEIGER

@<TRIPOS>ATOM
      1  C41        5.2130    0.8370    4.4290 C.3     0  LIG0        0.0000
      2  C45        5.2470    2.2380    5.0150 C.3     0  LIG0        0.0000
      3  C49        6.5110    2.5140    5.7830 C.3     0  LIG0        0.0003
      4  C47        6.7000    1.6250    6.9640 C.3     0  LIG0        0.0047
      5  C43        5.4340    1.4370    7.7310 C.3     0  LIG0        0.0257
      6  C38        5.5760    0.3420    8.7170 C.2     0  LIG0       -0.0307
      7  C36        4.4520   -0.2830    9.1880 C.2     0  LIG0       -0.0307
      8  C40        3.1360    0.0740    8.5850 C.3     0  LIG0        0.0257
      9  C37        2.0260   -0.7530    9.1310 C.3     0  LIG0        0.0047
     10  C39        1.0650   -1.1780    8.2840 C.3     0  LIG0        0.0003
     11  C44        1.3610   -1.1070    6.8270 C.3     0  LIG0        0.0000
     12  C48        0.1400   -0.8080    6.0210 C.3     0  LIG0        0.0000
     13  C51        0.4810   -0.7250    4.5640 C.3     0  LIG0        0.0000
     14  C52        0.3220    0.6530    4.0490 C.3     0  LIG0        0.0000
     15  C50        0.7350    0.7480    2.6070 C.3     0  LIG0        0.0006
     16  C46        0.5680    2.1420    2.0650 C.3     0  LIG0        0.0118
     17  C42        1.4910    3.1070    2.7480 C.3     0  LIG0        0.1141
     18  C35        2.3290    3.9450    1.8050 C.2     0  LIG0        0.3649
     19  O33        2.7420    5.0270    2.1760 O.co2   0  LIG0       -0.2457
     20  O34        2.5990    3.4910    0.6730 O.co2   0  LIG0       -0.2457
@<TRIPOS>BOND
     1    20    18   ar
     2    18    19   ar
     3    18    17    1
     4    16    15    1
     5    16    17    1
     6    15    14    1
     7    14    13    1
     8     1     2    1
     9    13    12    1
    10     2     3    1
    11     3     4    1
    12    12    11    1
    13    11    10    1
    14     4     5    1
    15     5     6    1
    16    10     9    1
    17     8     9    1
    18     8     7    1
    19     6     7    2
