@<TRIPOS>MOLECULE
/Users/xuhangdai/Desktop/Projects/OptimalTransport/extra_bio_ligands_boltz_af3/boltz_results_5bvs_EIC/5bvs_EIC_model_36_chainB.pdb
 20 19 0 0 0
SMALL
GASTEIGER

@<TRIPOS>ATOM
      1  C41       -3.2960    4.2430    2.5900 C.3     0  LIG0        0.0000
      2  C45       -3.4230    4.8780    3.9700 C.3     0  LIG0        0.0000
      3  C49       -4.8500    5.1140    4.3630 C.3     0  LIG0        0.0003
      4  C47       -5.4260    6.4300    3.9620 C.3     0  LIG0        0.0047
      5  C43       -4.4180    7.3810    3.4220 C.3     0  LIG0        0.0257
      6  C38       -5.0550    8.5410    2.7430 C.2     0  LIG0       -0.0304
      7  C36       -4.3300    9.2400    1.8100 C.2     0  LIG0       -0.0260
      8  C40       -3.0020    8.6990    1.3960 C.3     0  LIG0        0.0513
      9  C37       -2.2480    9.6430    0.5130 C.2     0  LIG0       -0.0260
     10  C39       -1.2870    9.1350   -0.2890 C.2     0  LIG0       -0.0304
     11  C44       -1.1530    7.6420   -0.3480 C.3     0  LIG0        0.0257
     12  C48        0.0300    7.1950   -1.1670 C.3     0  LIG0        0.0047
     13  C51        0.0630    5.6920   -1.3270 C.3     0  LIG0        0.0003
     14  C52        0.5070    4.9890   -0.0780 C.3     0  LIG0        0.0000
     15  C50        0.4390    3.4820   -0.2160 C.3     0  LIG0        0.0006
     16  C46        1.1990    2.7540    0.8670 C.3     0  LIG0        0.0118
     17  C42        0.6810    3.0680    2.2460 C.3     0  LIG0        0.1141
     18  C35        0.2290    1.8520    3.0460 C.2     0  LIG0        0.3649
     19  O33       -0.1110    0.8160    2.4460 O.co2   0  LIG0       -0.2457
     20  O34        0.1950    1.9290    4.2790 O.co2   0  LIG0       -0.2457
@<TRIPOS>BOND
     1    13    12    1
     2    13    14    1
     3    12    11    1
     4    11    10    1
     5    10     9    2
     6    15    14    1
     7    15    16    1
     8     9     8    1
     9    16    17    1
    10     8     7    1
    11     7     6    2
    12    17    18    1
    13    19    18   ar
    14     1     2    1
    15     6     5    1
    16    18    20   ar
    17     5     4    1
    18     4     3    1
    19     2     3    1
