@<TRIPOS>MOLECULE
/Users/xuhangdai/Desktop/Projects/OptimalTransport/extra_bio_ligands_boltz_af3/boltz_results_5bvs_EIC/5bvs_EIC_model_49_chainB.pdb
 20 19 0 0 0
SMALL
GASTEIGER

@<TRIPOS>ATOM
      1  C41       -1.9840   -1.0980   -5.2280 C.3     0  LIG0        0.0000
      2  C45       -2.3680   -0.7190   -6.6470 C.3     0  LIG0        0.0000
      3  C49       -2.7860    0.7360   -6.7550 C.3     0  LIG0        0.0003
      4  C47       -3.3280    1.0690   -8.1210 C.3     0  LIG0        0.0047
      5  C43       -2.2300    1.2170   -9.1500 C.3     0  LIG0        0.0257
      6  C38       -2.3070    0.1520  -10.1860 C.2     0  LIG0       -0.0304
      7  C36       -1.1520   -0.4700  -10.6550 C.2     0  LIG0       -0.0260
      8  C40        0.1590   -0.1670  -10.0120 C.3     0  LIG0        0.0513
      9  C37        1.2840   -0.9630  -10.5900 C.2     0  LIG0       -0.0260
     10  C39        2.2080   -1.4850   -9.7400 C.2     0  LIG0       -0.0304
     11  C44        1.9010   -1.3900   -8.2730 C.3     0  LIG0        0.0257
     12  C48        2.9900   -1.9400   -7.3890 C.3     0  LIG0        0.0047
     13  C51        2.5080   -2.1030   -5.9660 C.3     0  LIG0        0.0003
     14  C52        2.3110   -0.7870   -5.2590 C.3     0  LIG0        0.0000
     15  C50        1.5490   -0.9450   -3.9610 C.3     0  LIG0        0.0006
     16  C46        1.5880    0.2970   -3.1010 C.3     0  LIG0        0.0118
     17  C42        0.8090    1.4350   -3.6980 C.3     0  LIG0        0.1141
     18  C35       -0.3930    1.8930   -2.8810 C.2     0  LIG0        0.3649
     19  O33       -0.7870    1.2130   -1.9200 O.co2   0  LIG0       -0.2457
     20  O34       -0.9700    2.9340   -3.2090 O.co2   0  LIG0       -0.2457
@<TRIPOS>BOND
     1     7     6    2
     2     7     8    1
     3     9     8    1
     4     9    10    2
     5     6     5    1
     6    10    11    1
     7     5     4    1
     8    11    12    1
     9     4     3    1
    10    12    13    1
    11     3     2    1
    12     2     1    1
    13    13    14    1
    14    14    15    1
    15    15    16    1
    16    17    16    1
    17    17    18    1
    18    20    18   ar
    19    18    19   ar
