@<TRIPOS>MOLECULE
/Users/xuhangdai/Desktop/Projects/OptimalTransport/extra_bio_ligands_boltz_af3/boltz_results_5bvs_EIC/5bvs_EIC_model_10_chainB.pdb
 20 19 0 0 0
SMALL
GASTEIGER

@<TRIPOS>ATOM
      1  C41        3.2940    4.9760   -5.3840 C.3     0  LIG0        0.0000
      2  C45        2.7320    5.7210   -6.5680 C.3     0  LIG0        0.0000
      3  C49        3.8050    6.4860   -7.3220 C.3     0  LIG0        0.0003
      4  C47        3.2490    7.0530   -8.5970 C.3     0  LIG0        0.0047
      5  C43        2.7520    5.9400   -9.4950 C.3     0  LIG0        0.0257
      6  C38        1.5130    6.3280  -10.2230 C.2     0  LIG0       -0.0304
      7  C36        0.5410    5.3640  -10.4840 C.2     0  LIG0       -0.0260
      8  C40        0.6600    4.0290   -9.8130 C.3     0  LIG0        0.0513
      9  C37       -0.3950    3.0590  -10.2630 C.2     0  LIG0       -0.0260
     10  C39       -0.7780    2.0740   -9.4010 C.2     0  LIG0       -0.0304
     11  C44       -0.3080    2.1870   -7.9760 C.3     0  LIG0        0.0257
     12  C48       -0.5640    0.9340   -7.1750 C.3     0  LIG0        0.0047
     13  C51       -0.2500    1.1510   -5.7070 C.3     0  LIG0        0.0003
     14  C52        1.2040    0.9400   -5.3900 C.3     0  LIG0        0.0000
     15  C50        1.5440    1.3500   -3.9680 C.3     0  LIG0        0.0006
     16  C46        2.9150    0.8790   -3.5290 C.3     0  LIG0        0.0118
     17  C42        4.0240    1.4970   -4.3430 C.3     0  LIG0        0.1141
     18  C35        5.0370    2.3100   -3.5400 C.2     0  LIG0        0.3649
     19  O33        4.7630    2.6770   -2.3850 O.co2   0  LIG0       -0.2457
     20  O34        6.1150    2.6080   -4.0720 O.co2   0  LIG0       -0.2457
@<TRIPOS>BOND
     1     7     6    2
     2     7     8    1
     3     9     8    1
     4     9    10    2
     5     6     5    1
     6     5     4    1
     7    10    11    1
     8     4     3    1
     9    11    12    1
    10     3     2    1
    11    12    13    1
    12     2     1    1
    13    13    14    1
    14    14    15    1
    15    17    18    1
    16    17    16    1
    17    20    18   ar
    18    15    16    1
    19    18    19   ar
