@<TRIPOS>MOLECULE
/Users/xuhangdai/Desktop/Projects/OptimalTransport/extra_bio_ligands_boltz_af3/boltz_results_5bvs_EIC/5bvs_EIC_model_18_chainB.pdb
 20 19 0 0 0
SMALL
GASTEIGER

@<TRIPOS>ATOM
      1  C41        3.7070    0.2480    5.1330 C.3     0  LIG0        0.0000
      2  C45        3.1860    0.1200    6.5460 C.3     0  LIG0        0.0000
      3  C49        4.1610    0.6490    7.5730 C.3     0  LIG0        0.0003
      4  C47        3.5080    1.6830    8.4370 C.3     0  LIG0        0.0047
      5  C43        3.2040    2.9050    7.6080 C.3     0  LIG0        0.0257
      6  C38        2.1770    3.7440    8.2730 C.2     0  LIG0       -0.0304
      7  C36        1.5530    4.7260    7.5400 C.2     0  LIG0       -0.0260
      8  C40        1.8470    4.8340    6.0830 C.3     0  LIG0        0.0513
      9  C37        1.0120    5.8810    5.4240 C.2     0  LIG0       -0.0260
     10  C39        0.5390    5.6400    4.1820 C.2     0  LIG0       -0.0304
     11  C44        0.6540    4.2350    3.6800 C.3     0  LIG0        0.0257
     12  C48        0.4790    4.1580    2.1890 C.3     0  LIG0        0.0047
     13  C51        0.4180    2.7210    1.7520 C.3     0  LIG0        0.0003
     14  C52        1.7490    2.2260    1.2960 C.3     0  LIG0        0.0000
     15  C50        1.7390    0.7250    1.1120 C.3     0  LIG0        0.0006
     16  C46        2.9360    0.2540    0.3320 C.3     0  LIG0        0.0118
     17  C42        4.2060    0.4000    1.1180 C.3     0  LIG0        0.1141
     18  C35        4.8230   -0.9150    1.5560 C.2     0  LIG0        0.3649
     19  O33        4.2330   -1.9830    1.3260 O.co2   0  LIG0       -0.2457
     20  O34        5.9070   -0.8890    2.1560 O.co2   0  LIG0       -0.2457
@<TRIPOS>BOND
     1    16    15    1
     2    16    17    1
     3    15    14    1
     4    17    18    1
     5    14    13    1
     6    19    18   ar
     7    18    20   ar
     8    13    12    1
     9    12    11    1
    10    11    10    1
    11    10     9    2
    12     1     2    1
    13     9     8    1
    14     8     7    1
    15     2     3    1
    16     7     6    2
    17     3     4    1
    18     5     6    1
    19     5     4    1
