@<TRIPOS>MOLECULE
/Users/xuhangdai/Desktop/Projects/OptimalTransport/extra_bio_ligands_boltz_af3/boltz_results_5bvs_EIC/5bvs_EIC_model_27_chainB.pdb
 20 19 0 0 0
SMALL
GASTEIGER

@<TRIPOS>ATOM
      1  C41       -3.4140    4.0520    0.3720 C.3     0  LIG0        0.0000
      2  C45       -3.6370    5.5220    0.0880 C.3     0  LIG0        0.0000
      3  C49       -4.9580    6.0390    0.6150 C.3     0  LIG0        0.0003
      4  C47       -4.7490    7.1130    1.6450 C.3     0  LIG0        0.0047
      5  C43       -4.1190    6.5250    2.8840 C.3     0  LIG0        0.0257
      6  C38       -3.1700    7.4810    3.5130 C.2     0  LIG0       -0.0304
      7  C36       -2.2080    6.9920    4.3860 C.2     0  LIG0       -0.0260
      8  C40       -2.0260    5.5130    4.5170 C.3     0  LIG0        0.0513
      9  C37       -1.0370    5.1490    5.5800 C.2     0  LIG0       -0.0260
     10  C39       -0.3360    3.9920    5.4500 C.2     0  LIG0       -0.0304
     11  C44       -0.3840    3.3010    4.1220 C.3     0  LIG0        0.0257
     12  C48       -0.0020    1.8450    4.2110 C.3     0  LIG0        0.0047
     13  C51        0.0170    1.1950    2.8490 C.3     0  LIG0        0.0003
     14  C52       -1.3040    0.5970    2.4880 C.3     0  LIG0        0.0000
     15  C50       -1.3030    0.0330    1.0870 C.3     0  LIG0        0.0006
     16  C46       -2.5290   -0.8000    0.7910 C.3     0  LIG0        0.0118
     17  C42       -3.8030   -0.0130    0.9430 C.3     0  LIG0        0.1141
     18  C35       -4.7320   -0.0510   -0.2610 C.2     0  LIG0        0.3649
     19  O33       -5.9220    0.1770   -0.1050 O.co2   0  LIG0       -0.2457
     20  O34       -4.2500   -0.2970   -1.3920 O.co2   0  LIG0       -0.2457
@<TRIPOS>BOND
     1    20    18   ar
     2    18    19   ar
     3    18    17    1
     4     2     1    1
     5     2     3    1
     6     3     4    1
     7    16    17    1
     8    16    15    1
     9    15    14    1
    10     4     5    1
    11    14    13    1
    12    13    12    1
    13     5     6    1
    14     6     7    2
    15    11    12    1
    16    11    10    1
    17     7     8    1
    18     8     9    1
    19    10     9    2
