@<TRIPOS>MOLECULE
/Users/xuhangdai/Desktop/Projects/OptimalTransport/extra_bio_ligands_boltz_af3/boltz_results_5bvs_EIC/5bvs_EIC_model_11_chainB.pdb
 20 19 0 0 0
SMALL
GASTEIGER

@<TRIPOS>ATOM
      1  C41        0.7020   -3.7230    3.9400 C.3     0  LIG0        0.0000
      2  C45        1.5880   -4.4280    4.9470 C.3     0  LIG0        0.0000
      3  C49        0.9720   -4.5020    6.3260 C.3     0  LIG0        0.0003
      4  C47        0.6930   -5.9250    6.7070 C.3     0  LIG0        0.0047
      5  C43       -0.6080   -6.3660    6.1050 C.3     0  LIG0        0.0257
      6  C38       -0.5310   -7.7800    5.6580 C.2     0  LIG0       -0.0304
      7  C36       -1.4250   -8.2260    4.7100 C.2     0  LIG0       -0.0260
      8  C40       -2.3390   -7.2380    4.0660 C.3     0  LIG0        0.0513
      9  C37       -3.2010   -7.8820    3.0300 C.2     0  LIG0       -0.0260
     10  C39       -3.4010   -7.2270    1.8630 C.2     0  LIG0       -0.0304
     11  C44       -2.5320   -6.0420    1.5970 C.3     0  LIG0        0.0257
     12  C48       -3.0600   -5.1990    0.4720 C.3     0  LIG0        0.0047
     13  C51       -2.0980   -4.0870    0.1580 C.3     0  LIG0        0.0003
     14  C52       -2.4120   -2.8580    0.9400 C.3     0  LIG0        0.0000
     15  C50       -1.3460   -1.8130    0.7580 C.3     0  LIG0        0.0006
     16  C46       -1.7540   -0.4880    1.3450 C.3     0  LIG0        0.0118
     17  C42       -1.8450   -0.5540    2.8380 C.3     0  LIG0        0.1141
     18  C35       -0.8280    0.3080    3.5640 C.2     0  LIG0        0.3649
     19  O33        0.1160    0.8120    2.9350 O.co2   0  LIG0       -0.2457
     20  O34       -0.9590    0.4710    4.7800 O.co2   0  LIG0       -0.2457
@<TRIPOS>BOND
     1    13    12    1
     2    13    14    1
     3    12    11    1
     4    15    14    1
     5    15    16    1
     6    16    17    1
     7    11    10    1
     8    10     9    2
     9    17    18    1
    10    19    18   ar
    11     9     8    1
    12    18    20   ar
    13     1     2    1
    14     8     7    1
    15     7     6    2
    16     2     3    1
    17     6     5    1
    18     5     4    1
    19     3     4    1
