@<TRIPOS>MOLECULE
/Users/xuhangdai/Desktop/Projects/OptimalTransport/extra_bio_ligands_boltz_af3/boltz_results_5bvs_EIC/5bvs_EIC_model_35_chainB.pdb
 20 19 0 0 0
SMALL
GASTEIGER

@<TRIPOS>ATOM
      1  C41       -2.7820    5.7300   -2.8480 C.3     0  LIG0        0.0000
      2  C45       -2.2960    7.1380   -3.0670 C.3     0  LIG0        0.0000
      3  C49       -3.2130    7.9440   -3.9530 C.3     0  LIG0        0.0003
      4  C47       -3.2910    9.3430   -3.4460 C.3     0  LIG0        0.0047
      5  C43       -3.9430    9.3310   -2.0960 C.3     0  LIG0        0.0257
      6  C38       -3.4780   10.4580   -1.2640 C.2     0  LIG0       -0.0304
      7  C36       -3.6650   10.3810    0.0930 C.2     0  LIG0       -0.0260
      8  C40       -4.1820    9.1050    0.6540 C.3     0  LIG0        0.0513
      9  C37       -4.3190    9.1680    2.1360 C.2     0  LIG0       -0.0260
     10  C39       -4.1090    8.0460    2.8450 C.2     0  LIG0       -0.0304
     11  C44       -3.5480    6.8690    2.1140 C.3     0  LIG0        0.0257
     12  C48       -3.7210    5.5950    2.8850 C.3     0  LIG0        0.0047
     13  C51       -3.0540    4.4530    2.1800 C.3     0  LIG0        0.0003
     14  C52       -3.9280    3.8690    1.1260 C.3     0  LIG0        0.0000
     15  C50       -3.1920    2.8350    0.3210 C.3     0  LIG0        0.0006
     16  C46       -4.1330    1.9330   -0.4220 C.3     0  LIG0        0.0118
     17  C42       -4.8900    2.6750   -1.4730 C.3     0  LIG0        0.1141
     18  C35       -4.5670    2.2710   -2.8920 C.2     0  LIG0        0.3649
     19  O33       -5.2950    2.6400   -3.7920 O.co2   0  LIG0       -0.2457
     20  O34       -3.5490    1.5820   -3.1110 O.co2   0  LIG0       -0.2457
@<TRIPOS>BOND
     1     3     4    1
     2     3     2    1
     3    19    18   ar
     4     4     5    1
     5    20    18   ar
     6     2     1    1
     7    18    17    1
     8     5     6    1
     9    17    16    1
    10     6     7    2
    11    16    15    1
    12     7     8    1
    13    15    14    1
    14     8     9    1
    15    14    13    1
    16    11    10    1
    17    11    12    1
    18     9    10    2
    19    13    12    1
