@<TRIPOS>MOLECULE
/Users/xuhangdai/Desktop/Projects/OptimalTransport/extra_bio_ligands_boltz_af3/boltz_results_5bvs_EIC/5bvs_EIC_model_46_chainB.pdb
 20 19 0 0 0
SMALL
GASTEIGER

@<TRIPOS>ATOM
      1  C41        2.7630   -4.1810   -4.8810 C.3     0  LIG0        0.0000
      2  C45        3.6180   -3.8520   -6.0920 C.3     0  LIG0        0.0000
      3  C49        3.7650   -5.0460   -7.0020 C.3     0  LIG0        0.0003
      4  C47        4.5480   -4.7310   -8.2430 C.3     0  LIG0        0.0047
      5  C43        5.9810   -4.3890   -7.9240 C.3     0  LIG0        0.0257
      6  C38        6.7430   -5.6070   -7.5210 C.2     0  LIG0       -0.0304
      7  C36        7.4880   -5.6540   -6.3600 C.2     0  LIG0       -0.0260
      8  C40        7.5360   -4.5140   -5.3810 C.3     0  LIG0        0.0513
      9  C37        8.4980   -4.8160   -4.2750 C.2     0  LIG0       -0.0260
     10  C39        8.5240   -4.0500   -3.1400 C.2     0  LIG0       -0.0304
     11  C44        7.6910   -2.8020   -3.0220 C.3     0  LIG0        0.0257
     12  C48        7.0000   -2.6470   -1.6850 C.3     0  LIG0        0.0047
     13  C51        5.5030   -2.4910   -1.8360 C.3     0  LIG0        0.0003
     14  C52        5.0440   -1.0790   -2.1380 C.3     0  LIG0        0.0000
     15  C50        3.6960   -1.0680   -2.8380 C.3     0  LIG0        0.0006
     16  C46        3.2200    0.3290   -3.2100 C.3     0  LIG0        0.0118
     17  C42        3.4870    0.6810   -4.6550 C.3     0  LIG0        0.1141
     18  C35        2.3160    0.5450   -5.6290 C.2     0  LIG0        0.3649
     19  O33        2.5030    0.7370   -6.8230 O.co2   0  LIG0       -0.2457
     20  O34        1.1820    0.2280   -5.1970 O.co2   0  LIG0       -0.2457
@<TRIPOS>BOND
     1     4     5    1
     2     4     3    1
     3     5     6    1
     4     6     7    2
     5     3     2    1
     6    19    18   ar
     7     7     8    1
     8     2     1    1
     9    18    20   ar
    10    18    17    1
    11     8     9    1
    12    17    16    1
    13     9    10    2
    14    16    15    1
    15    10    11    1
    16    11    12    1
    17    15    14    1
    18    14    13    1
    19    13    12    1
