@<TRIPOS>MOLECULE
/Users/xuhangdai/Desktop/Projects/OptimalTransport/extra_bio_ligands_boltz_af3/boltz_results_5bvs_EIC/5bvs_EIC_model_24_chainB.pdb
 20 19 0 0 0
SMALL
GASTEIGER

@<TRIPOS>ATOM
      1  C41       -0.5470    6.2120   -0.6300 C.3     0  LIG0        0.0000
      2  C45       -0.6030    7.7240   -0.7710 C.3     0  LIG0        0.0000
      3  C49       -1.9810    8.2880   -0.4610 C.3     0  LIG0        0.0003
      4  C47       -1.8740    9.4530    0.4830 C.3     0  LIG0        0.0047
      5  C43       -1.4450    8.9670    1.8480 C.3     0  LIG0        0.0257
      6  C38       -0.2730    9.7410    2.3420 C.2     0  LIG0       -0.0304
      7  C36        0.5520    9.1800    3.3090 C.2     0  LIG0       -0.0260
      8  C40        0.3470    7.7430    3.6710 C.3     0  LIG0        0.0513
      9  C37        1.2440    7.3270    4.7980 C.2     0  LIG0       -0.0260
     10  C39        1.6770    6.0430    4.8280 C.2     0  LIG0       -0.0304
     11  C44        1.3500    5.2040    3.6280 C.3     0  LIG0        0.0257
     12  C48        1.8740    3.7970    3.7510 C.3     0  LIG0        0.0047
     13  C51        1.6190    3.0330    2.4720 C.3     0  LIG0        0.0003
     14  C52        0.1640    2.6940    2.3060 C.3     0  LIG0        0.0000
     15  C50       -0.0940    2.0390    0.9700 C.3     0  LIG0        0.0006
     16  C46       -1.5090    1.5260    0.8600 C.3     0  LIG0        0.0118
     17  C42       -2.4970    2.6580    0.8460 C.3     0  LIG0        0.1141
     18  C35       -3.3510    2.7080   -0.4090 C.2     0  LIG0        0.3649
     19  O33       -2.9360    2.1910   -1.4590 O.co2   0  LIG0       -0.2457
     20  O34       -4.4400    3.2860   -0.3570 O.co2   0  LIG0       -0.2457
@<TRIPOS>BOND
     1    19    18   ar
     2     2     1    1
     3     2     3    1
     4     3     4    1
     5    18    20   ar
     6    18    17    1
     7     4     5    1
     8    17    16    1
     9    16    15    1
    10    15    14    1
    11     5     6    1
    12    14    13    1
    13     6     7    2
    14    13    12    1
    15     7     8    1
    16    11    12    1
    17    11    10    1
    18     8     9    1
    19     9    10    2
