@<TRIPOS>MOLECULE
/Users/xuhangdai/Desktop/Projects/OptimalTransport/extra_bio_ligands_boltz_af3/boltz_results_5bvs_EIC/5bvs_EIC_model_38_chainB.pdb
 20 19 0 0 0
SMALL
GASTEIGER

@<TRIPOS>ATOM
      1  C41       -5.7480    1.1700   -3.8880 C.3     0  LIG0        0.0000
      2  C45       -6.7610    2.2520   -3.5570 C.3     0  LIG0        0.0000
      3  C49       -7.9290    2.2420   -4.5130 C.3     0  LIG0        0.0003
      4  C47       -9.1320    1.6570   -3.8580 C.3     0  LIG0        0.0047
      5  C43       -8.8460    0.2340   -3.5150 C.3     0  LIG0        0.0257
      6  C38       -9.9440   -0.3300   -2.7190 C.2     0  LIG0       -0.0304
      7  C36       -9.7790   -1.5750   -2.1940 C.2     0  LIG0       -0.0260
      8  C40       -8.4450   -2.2130   -2.3070 C.3     0  LIG0        0.0513
      9  C37       -8.4770   -3.6010   -1.7870 C.2     0  LIG0       -0.0260
     10  C39       -7.3370   -4.1140   -1.3050 C.2     0  LIG0       -0.0304
     11  C44       -6.2300   -3.1610   -1.0550 C.3     0  LIG0        0.0257
     12  C48       -4.9010   -3.8190   -1.1650 C.3     0  LIG0        0.0047
     13  C51       -3.8300   -2.8030   -0.9390 C.3     0  LIG0        0.0003
     14  C52       -3.0810   -2.5240   -2.1780 C.3     0  LIG0        0.0000
     15  C50       -2.3990   -1.1880   -2.0860 C.3     0  LIG0        0.0006
     16  C46       -1.3550   -1.0460   -3.1410 C.3     0  LIG0        0.0118
     17  C42       -1.9440   -0.5950   -4.4300 C.3     0  LIG0        0.1141
     18  C35       -1.6090    0.8380   -4.7950 C.2     0  LIG0        0.3649
     19  O33       -0.9360    1.5270   -4.0210 O.co2   0  LIG0       -0.2457
     20  O34       -2.0340    1.2790   -5.8640 O.co2   0  LIG0       -0.2457
@<TRIPOS>BOND
     1    20    18   ar
     2    18    17    1
     3    18    19   ar
     4     3     4    1
     5     3     2    1
     6    17    16    1
     7     1     2    1
     8     4     5    1
     9     5     6    1
    10    16    15    1
    11     6     7    2
    12     8     7    1
    13     8     9    1
    14    14    15    1
    15    14    13    1
    16     9    10    2
    17    10    11    1
    18    12    11    1
    19    12    13    1
