@<TRIPOS>MOLECULE
/Users/xuhangdai/Desktop/Projects/OptimalTransport/extra_bio_ligands_boltz_af3/boltz_results_5bvs_EIC/5bvs_EIC_model_33_chainB.pdb
 20 19 0 0 0
SMALL
GASTEIGER

@<TRIPOS>ATOM
      1  C41       -1.5930    6.9920    0.8550 C.3     0  LIG0        0.0000
      2  C45       -1.5240    7.7750    2.1490 C.3     0  LIG0        0.0000
      3  C49       -1.7990    9.2480    1.9320 C.3     0  LIG0        0.0003
      4  C47       -2.9700    9.6680    2.7560 C.3     0  LIG0        0.0047
      5  C43       -4.1930    8.9660    2.2460 C.3     0  LIG0        0.0257
      6  C38       -5.2380    8.9340    3.2850 C.2     0  LIG0       -0.0304
      7  C36       -6.3390    8.1590    3.0560 C.2     0  LIG0       -0.0260
      8  C40       -6.3570    7.3350    1.8190 C.3     0  LIG0        0.0513
      9  C37       -7.5480    6.4390    1.7860 C.2     0  LIG0       -0.0260
     10  C39       -7.4000    5.2050    1.2740 C.2     0  LIG0       -0.0304
     11  C44       -6.0080    4.7520    1.0050 C.3     0  LIG0        0.0257
     12  C48       -5.9920    3.5170    0.1530 C.3     0  LIG0        0.0047
     13  C51       -4.6010    2.9720    0.0460 C.3     0  LIG0        0.0003
     14  C52       -3.8270    3.6790   -1.0080 C.3     0  LIG0        0.0000
     15  C50       -2.4000    3.2050   -1.0270 C.3     0  LIG0        0.0006
     16  C46       -1.7630    3.4560   -2.3590 C.3     0  LIG0        0.0118
     17  C42       -1.6230    4.9210   -2.6290 C.3     0  LIG0        0.1141
     18  C35       -0.2030    5.4370   -2.4990 C.2     0  LIG0        0.3649
     19  O33        0.6780    4.7080   -2.0210 O.co2   0  LIG0       -0.2457
     20  O34        0.0440    6.5920   -2.8680 O.co2   0  LIG0       -0.2457
@<TRIPOS>BOND
     1    20    18   ar
     2    17    18    1
     3    17    16    1
     4    18    19   ar
     5    16    15    1
     6    15    14    1
     7    14    13    1
     8    13    12    1
     9    12    11    1
    10     1     2    1
    11    11    10    1
    12    10     9    2
    13     9     8    1
    14     8     7    1
    15     3     2    1
    16     3     4    1
    17     5     4    1
    18     5     6    1
    19     7     6    2
