@<TRIPOS>MOLECULE
/Users/xuhangdai/Desktop/Projects/OptimalTransport/extra_bio_ligands_boltz_af3/boltz_results_5bvs_EIC/5bvs_EIC_model_34_chainB.pdb
 20 19 0 0 0
SMALL
GASTEIGER

@<TRIPOS>ATOM
      1  C41       -3.0180    2.4520   -4.8770 C.3     0  LIG0        0.0000
      2  C45       -4.0360    3.0010   -5.8470 C.3     0  LIG0        0.0000
      3  C49       -3.3850    3.5760   -7.0660 C.3     0  LIG0        0.0003
      4  C47       -4.0460    4.8140   -7.5580 C.3     0  LIG0        0.0047
      5  C43       -4.5030    5.6740   -6.4200 C.3     0  LIG0        0.0257
      6  C38       -4.0540    7.0860   -6.5360 C.2     0  LIG0       -0.0304
      7  C36       -4.0810    7.8830   -5.4060 C.2     0  LIG0       -0.0260
      8  C40       -4.3630    7.2430   -4.0860 C.3     0  LIG0        0.0513
      9  C37       -4.4520    8.2290   -2.9650 C.2     0  LIG0       -0.0260
     10  C39       -4.0710    7.8430   -1.7220 C.2     0  LIG0       -0.0304
     11  C44       -3.3430    6.5420   -1.5870 C.3     0  LIG0        0.0257
     12  C48       -3.2680    6.0540   -0.1650 C.3     0  LIG0        0.0047
     13  C51       -2.3440    4.8750   -0.0110 C.3     0  LIG0        0.0003
     14  C52       -2.9760    3.5700   -0.3960 C.3     0  LIG0        0.0000
     15  C50       -2.0070    2.4180   -0.2940 C.3     0  LIG0        0.0006
     16  C46       -2.6700    1.0600   -0.3570 C.3     0  LIG0        0.0118
     17  C42       -3.5280    0.8820   -1.5780 C.3     0  LIG0        0.1141
     18  C35       -3.3480   -0.4430   -2.3130 C.2     0  LIG0        0.3649
     19  O33       -4.2840   -0.9030   -2.9420 O.co2   0  LIG0       -0.2457
     20  O34       -2.2310   -1.0080   -2.2720 O.co2   0  LIG0       -0.2457
@<TRIPOS>BOND
     1     4     3    1
     2     4     5    1
     3     3     2    1
     4     6     5    1
     5     6     7    2
     6     2     1    1
     7     7     8    1
     8     8     9    1
     9     9    10    2
    10    19    18   ar
    11    18    20   ar
    12    18    17    1
    13    10    11    1
    14    11    12    1
    15    17    16    1
    16    14    15    1
    17    14    13    1
    18    16    15    1
    19    12    13    1
