@<TRIPOS>MOLECULE
/Users/xuhangdai/Desktop/Projects/OptimalTransport/extra_bio_ligands_boltz_af3/boltz_results_5bvs_EIC/5bvs_EIC_model_13_chainB.pdb
 20 19 0 0 0
SMALL
GASTEIGER

@<TRIPOS>ATOM
      1  C41        1.8940    6.6660   -3.2170 C.3     0  LIG0        0.0000
      2  C45        2.0880    7.2700   -4.5870 C.3     0  LIG0        0.0000
      3  C49        2.5180    8.7170   -4.5250 C.3     0  LIG0        0.0003
      4  C47        3.8140    8.9020   -5.2320 C.3     0  LIG0        0.0047
      5  C43        4.8570    8.0810   -4.5460 C.3     0  LIG0        0.0257
      6  C38        6.1000    8.0530   -5.3420 C.2     0  LIG0       -0.0304
      7  C36        7.1430    7.3340   -4.8530 C.2     0  LIG0       -0.0260
      8  C40        6.9180    6.5800   -3.5960 C.3     0  LIG0        0.0513
      9  C37        8.1210    5.8000   -3.2100 C.2     0  LIG0       -0.0260
     10  C39        7.9360    4.6470   -2.5440 C.2     0  LIG0       -0.0304
     11  C44        6.5340    4.1560   -2.4230 C.3     0  LIG0        0.0257
     12  C48        6.4340    2.9840   -1.4930 C.3     0  LIG0        0.0047
     13  C51        5.0500    2.4050   -1.5150 C.3     0  LIG0        0.0003
     14  C52        4.0970    3.2340   -0.7240 C.3     0  LIG0        0.0000
     15  C50        2.7010    2.6860   -0.8180 C.3     0  LIG0        0.0006
     16  C46        1.8200    3.2320    0.2670 C.3     0  LIG0        0.0118
     17  C42        1.6130    4.7080    0.1140 C.3     0  LIG0        0.1141
     18  C35        0.1620    5.0970   -0.1020 C.2     0  LIG0        0.3649
     19  O33       -0.6460    4.2450   -0.5010 O.co2   0  LIG0       -0.2457
     20  O34       -0.1720    6.2670    0.1120 O.co2   0  LIG0       -0.2457
@<TRIPOS>BOND
     1     6     7    2
     2     6     5    1
     3     4     5    1
     4     4     3    1
     5     7     8    1
     6     2     3    1
     7     2     1    1
     8     8     9    1
     9     9    10    2
    10    10    11    1
    11    11    12    1
    12    13    12    1
    13    13    14    1
    14    15    14    1
    15    15    16    1
    16    19    18   ar
    17    18    20   ar
    18    18    17    1
    19    17    16    1
