@<TRIPOS>MOLECULE
/Users/xuhangdai/Desktop/Projects/OptimalTransport/extra_bio_ligands_boltz_af3/boltz_results_5bvs_EIC/5bvs_EIC_model_2_chainB.pdb
 20 19 0 0 0
SMALL
GASTEIGER

@<TRIPOS>ATOM
      1  C41       -1.9990    7.2960    1.3070 C.3     0  LIG0        0.0000
      2  C45       -2.4110    8.6530    1.8570 C.3     0  LIG0        0.0000
      3  C49       -1.6260    9.0420    3.0940 C.3     0  LIG0        0.0003
      4  C47       -0.8680   10.3270    2.8900 C.3     0  LIG0        0.0047
      5  C43        0.4740   10.0560    2.2520 C.3     0  LIG0        0.0257
      6  C38        0.5610   10.7320    0.9290 C.2     0  LIG0       -0.0304
      7  C36        1.4380   10.2810   -0.0410 C.2     0  LIG0       -0.0260
      8  C40        2.1470    8.9790    0.1310 C.3     0  LIG0        0.0513
      9  C37        3.2020    8.7980   -0.9160 C.2     0  LIG0       -0.0260
     10  C39        3.5170    7.5510   -1.3290 C.2     0  LIG0       -0.0304
     11  C44        2.6010    6.4380   -0.9250 C.3     0  LIG0        0.0257
     12  C48        3.2680    5.0970   -1.0300 C.3     0  LIG0        0.0047
     13  C51        2.2890    4.0010   -0.7040 C.3     0  LIG0        0.0003
     14  C52        2.3970    3.5650    0.7200 C.3     0  LIG0        0.0000
     15  C50        1.1340    2.8810    1.1870 C.3     0  LIG0        0.0006
     16  C46        1.3550    2.0810    2.4430 C.3     0  LIG0        0.0118
     17  C42        1.4970    2.9600    3.6500 C.3     0  LIG0        0.1141
     18  C35        0.3080    2.9420    4.6020 C.2     0  LIG0        0.3649
     19  O33       -0.6730    2.2210    4.3640 O.co2   0  LIG0       -0.2457
     20  O34        0.3470    3.6690    5.6020 O.co2   0  LIG0       -0.2457
@<TRIPOS>BOND
     1    10    11    1
     2    10     9    2
     3    12    11    1
     4    12    13    1
     5     9     8    1
     6    13    14    1
     7     7     8    1
     8     7     6    2
     9    14    15    1
    10     6     5    1
    11    15    16    1
    12     1     2    1
    13     2     3    1
    14     5     4    1
    15    16    17    1
    16     4     3    1
    17    17    18    1
    18    19    18   ar
    19    18    20   ar
