@<TRIPOS>MOLECULE
/Users/xuhangdai/Desktop/Projects/OptimalTransport/extra_bio_ligands_boltz_af3/boltz_results_5bvs_EIC/5bvs_EIC_model_47_chainB.pdb
 20 19 0 0 0
SMALL
GASTEIGER

@<TRIPOS>ATOM
      1  C41        5.6210    4.9700    3.7550 C.3     0  LIG0        0.0000
      2  C45        5.9880    5.6250    5.0520 C.3     0  LIG0        0.0000
      3  C49        7.1450    6.5790    4.9080 C.3     0  LIG0        0.0003
      4  C47        6.9770    7.7200    5.8600 C.3     0  LIG0        0.0047
      5  C43        5.6890    8.4130    5.5340 C.3     0  LIG0        0.0257
      6  C38        5.3910    9.4900    6.4990 C.2     0  LIG0       -0.0304
      7  C36        4.1620   10.0800    6.4010 C.2     0  LIG0       -0.0260
      8  C40        3.1940    9.4060    5.4910 C.3     0  LIG0        0.0513
      9  C37        1.9650   10.2110    5.2780 C.2     0  LIG0       -0.0260
     10  C39        0.8800    9.5400    4.8460 C.2     0  LIG0       -0.0304
     11  C44        0.9240    8.0530    4.9520 C.3     0  LIG0        0.0257
     12  C48        0.2380    7.3880    3.8180 C.3     0  LIG0        0.0047
     13  C51        0.3450    5.9110    3.9730 C.3     0  LIG0        0.0003
     14  C52        0.7720    5.2730    2.7230 C.3     0  LIG0        0.0000
     15  C50        1.1110    3.8300    2.9560 C.3     0  LIG0        0.0006
     16  C46        1.5570    3.1540    1.6970 C.3     0  LIG0        0.0118
     17  C42        2.8660    3.6950    1.2260 C.3     0  LIG0        0.1141
     18  C35        4.0070    2.6980    1.2590 C.2     0  LIG0        0.3649
     19  O33        5.0510    2.9770    0.6980 O.co2   0  LIG0       -0.2457
     20  O34        3.8540    1.6200    1.8740 O.co2   0  LIG0       -0.2457
@<TRIPOS>BOND
     1    19    18   ar
     2    17    18    1
     3    17    16    1
     4    18    20   ar
     5    16    15    1
     6    14    15    1
     7    14    13    1
     8     1     2    1
     9    12    13    1
    10    12    11    1
    11    10    11    1
    12    10     9    2
    13     3     2    1
    14     3     4    1
    15     9     8    1
    16     8     7    1
    17     5     4    1
    18     5     6    1
    19     7     6    2
