@<TRIPOS>MOLECULE
/Users/xuhangdai/Desktop/Projects/OptimalTransport/extra_bio_ligands_boltz_af3/boltz_results_5bvs_EIC/5bvs_EIC_model_5_chainB.pdb
 20 19 0 0 0
SMALL
GASTEIGER

@<TRIPOS>ATOM
      1  C41       -3.4920    0.3310   -2.3770 C.3     0  LIG0        0.0000
      2  C45       -4.5820    1.1990   -2.9540 C.3     0  LIG0        0.0000
      3  C49       -5.9540    0.5640   -2.8650 C.3     0  LIG0        0.0003
      4  C47       -7.0380    1.5790   -3.0620 C.3     0  LIG0        0.0047
      5  C43       -6.9940    2.6240   -1.9790 C.3     0  LIG0        0.0257
      6  C38       -6.7740    3.9780   -2.5430 C.2     0  LIG0       -0.0304
      7  C36       -6.0800    4.9370   -1.8210 C.2     0  LIG0       -0.0260
      8  C40       -5.3520    4.5570   -0.5810 C.3     0  LIG0        0.0513
      9  C37       -4.7820    5.7440    0.1240 C.2     0  LIG0       -0.0260
     10  C39       -3.6010    5.6210    0.7620 C.2     0  LIG0       -0.0304
     11  C44       -2.8230    4.3620    0.5400 C.3     0  LIG0        0.0257
     12  C48       -1.6610    4.2160    1.4900 C.3     0  LIG0        0.0047
     13  C51       -0.8000    3.0240    1.1510 C.3     0  LIG0        0.0003
     14  C52       -1.4550    1.7110    1.4760 C.3     0  LIG0        0.0000
     15  C50       -0.6060    0.5360    1.0690 C.3     0  LIG0        0.0006
     16  C46       -1.1530   -0.8000    1.5310 C.3     0  LIG0        0.0118
     17  C42       -2.5590   -1.0480    1.0510 C.3     0  LIG0        0.1141
     18  C35       -2.8210   -2.4630    0.5430 C.2     0  LIG0        0.3649
     19  O33       -1.8980   -3.1170    0.0430 O.co2   0  LIG0       -0.2457
     20  O34       -3.9650   -2.9200    0.6190 O.co2   0  LIG0       -0.2457
@<TRIPOS>BOND
     1     4     3    1
     2     4     5    1
     3     2     3    1
     4     2     1    1
     5     6     5    1
     6     6     7    2
     7     7     8    1
     8     8     9    1
     9    19    18   ar
    10     9    10    2
    11    11    10    1
    12    11    12    1
    13    18    20   ar
    14    18    17    1
    15    17    16    1
    16    15    14    1
    17    15    16    1
    18    13    14    1
    19    13    12    1
