@<TRIPOS>MOLECULE
/Users/xuhangdai/Desktop/Projects/OptimalTransport/extra_bio_ligands_boltz_af3/boltz_results_5bvs_EIC/5bvs_EIC_model_23_chainB.pdb
 20 19 0 0 0
SMALL
GASTEIGER

@<TRIPOS>ATOM
      1  C41        2.4590    0.2150    5.6740 C.3     0  LIG0        0.0000
      2  C45        2.8420   -0.6300    6.8670 C.3     0  LIG0        0.0000
      3  C49        3.5170    0.1800    7.9570 C.3     0  LIG0        0.0003
      4  C47        2.8820   -0.1060    9.2860 C.3     0  LIG0        0.0047
      5  C43        1.4900    0.4740    9.3120 C.3     0  LIG0        0.0257
      6  C38        0.5820   -0.3670   10.1390 C.2     0  LIG0       -0.0307
      7  C36       -0.7820   -0.2940    9.9190 C.2     0  LIG0       -0.0307
      8  C40       -1.2750    0.4160    8.6930 C.3     0  LIG0        0.0257
      9  C37       -2.7490    0.6560    8.7500 C.3     0  LIG0        0.0047
     10  C39       -3.4350    0.7410    7.5750 C.3     0  LIG0        0.0003
     11  C44       -2.8210    0.1240    6.3610 C.3     0  LIG0        0.0000
     12  C48       -2.8410    1.0540    5.1860 C.3     0  LIG0        0.0000
     13  C51       -1.9610    0.4980    4.1150 C.3     0  LIG0        0.0000
     14  C52       -1.4260    1.5600    3.2420 C.3     0  LIG0        0.0000
     15  C50       -0.1590    1.0880    2.5800 C.3     0  LIG0        0.0006
     16  C46        0.4420    2.1540    1.7080 C.3     0  LIG0        0.0118
     17  C42        1.3720    3.0310    2.4740 C.3     0  LIG0        0.1141
     18  C35        2.8430    2.6680    2.3410 C.2     0  LIG0        0.3649
     19  O33        3.6640    3.2290    3.0500 O.co2   0  LIG0       -0.2457
     20  O34        3.1830    1.7960    1.5080 O.co2   0  LIG0       -0.2457
@<TRIPOS>BOND
     1    20    18   ar
     2    16    17    1
     3    16    15    1
     4    18    17    1
     5    18    19   ar
     6    15    14    1
     7    14    13    1
     8    13    12    1
     9    12    11    1
    10     1     2    1
    11    11    10    1
    12     2     3    1
    13    10     9    1
    14     3     4    1
    15     8     9    1
    16     8     7    1
    17     4     5    1
    18     5     6    1
    19     7     6    2
