@<TRIPOS>MOLECULE
/Users/xuhangdai/Desktop/Projects/OptimalTransport/extra_bio_ligands_boltz_af3/boltz_results_5bvs_EIC/5bvs_EIC_model_1_chainB.pdb
 20 19 0 0 0
SMALL
GASTEIGER

@<TRIPOS>ATOM
      1  C41        4.1810    4.7230   -4.9480 C.3     0  LIG0        0.0000
      2  C45        4.4960    3.9820   -6.2220 C.3     0  LIG0        0.0000
      3  C49        5.0690    2.6040   -5.9800 C.3     0  LIG0        0.0003
      4  C47        4.8400    1.7230   -7.1740 C.3     0  LIG0        0.0047
      5  C43        3.4420    1.1420   -7.1480 C.3     0  LIG0        0.0257
      6  C38        2.6330    1.6730   -8.2770 C.2     0  LIG0       -0.0307
      7  C36        1.3230    1.2860   -8.4070 C.2     0  LIG0       -0.0307
      8  C40        0.7280    0.4530   -7.3330 C.3     0  LIG0        0.0257
      9  C37       -0.6390    0.0000   -7.7030 C.3     0  LIG0        0.0047
     10  C39       -1.5220   -0.2180   -6.7150 C.3     0  LIG0        0.0003
     11  C44       -1.2120    0.3500   -5.3710 C.3     0  LIG0        0.0000
     12  C48       -1.4600   -0.6390   -4.2850 C.3     0  LIG0        0.0000
     13  C51       -1.1090   -0.0450   -2.9590 C.3     0  LIG0        0.0000
     14  C52       -0.0430   -0.8260   -2.3010 C.3     0  LIG0        0.0000
     15  C50        0.5160   -0.0840   -1.1210 C.3     0  LIG0        0.0006
     16  C46        1.5790   -0.8750   -0.4190 C.3     0  LIG0        0.0118
     17  C42        2.7670   -1.0940   -1.2970 C.3     0  LIG0        0.1141
     18  C35        4.0670   -0.5900   -0.7040 C.2     0  LIG0        0.3649
     19  O33        4.0480    0.1340    0.2990 O.co2   0  LIG0       -0.2457
     20  O34        5.1240   -0.9040   -1.2540 O.co2   0  LIG0       -0.2457
@<TRIPOS>BOND
     1     7     6    2
     2     7     8    1
     3     6     5    1
     4     9     8    1
     5     9    10    1
     6     4     5    1
     7     4     3    1
     8    10    11    1
     9     2     3    1
    10     2     1    1
    11    11    12    1
    12    12    13    1
    13    13    14    1
    14    14    15    1
    15    17    18    1
    16    17    16    1
    17    20    18   ar
    18    15    16    1
    19    18    19   ar
