@<TRIPOS>MOLECULE
/Users/xuhangdai/Desktop/Projects/OptimalTransport/extra_bio_ligands_boltz_af3/boltz_results_5bvs_EIC/5bvs_EIC_model_7_chainB.pdb
 20 19 0 0 0
SMALL
GASTEIGER

@<TRIPOS>ATOM
      1  C41        6.4030   -2.0220    1.8370 C.3     0  LIG0        0.0000
      2  C45        7.0570   -2.4860    3.1110 C.3     0  LIG0        0.0000
      3  C49        8.5000   -2.8890    2.9210 C.3     0  LIG0        0.0003
      4  C47        9.3580   -2.2680    3.9810 C.3     0  LIG0        0.0047
      5  C43        9.3090   -0.7720    3.8350 C.3     0  LIG0        0.0257
      6  C38        9.8110   -0.0870    5.0470 C.2     0  LIG0       -0.0304
      7  C36        9.5600    1.2580    5.1800 C.2     0  LIG0       -0.0260
      8  C40        8.6300    1.9050    4.2070 C.3     0  LIG0        0.0513
      9  C37        8.5920    3.3870    4.3830 C.2     0  LIG0       -0.0260
     10  C39        7.4710    4.0460    4.0250 C.2     0  LIG0       -0.0304
     11  C44        6.2600    3.2270    3.7180 C.3     0  LIG0        0.0257
     12  C48        5.2550    3.9900    2.9030 C.3     0  LIG0        0.0047
     13  C51        4.0120    3.1800    2.6680 C.3     0  LIG0        0.0003
     14  C52        4.0720    2.4330    1.3850 C.3     0  LIG0        0.0000
     15  C50        2.8460    1.5870    1.1770 C.3     0  LIG0        0.0006
     16  C46        2.7750    1.0040   -0.2080 C.3     0  LIG0        0.0118
     17  C42        3.9720    0.1570   -0.5220 C.3     0  LIG0        0.1141
     18  C35        3.6340   -1.2430   -1.0020 C.2     0  LIG0        0.3649
     19  O33        2.5380   -1.7390   -0.7160 O.co2   0  LIG0       -0.2457
     20  O34        4.4740   -1.8670   -1.6540 O.co2   0  LIG0       -0.2457
@<TRIPOS>BOND
     1    20    18   ar
     2    18    19   ar
     3    18    17    1
     4    17    16    1
     5    16    15    1
     6    15    14    1
     7    14    13    1
     8     1     2    1
     9    13    12    1
    10    12    11    1
    11     3     2    1
    12     3     4    1
    13    11    10    1
    14     5     4    1
    15     5     6    1
    16    10     9    2
    17     8     9    1
    18     8     7    1
    19     6     7    2
