@<TRIPOS>MOLECULE
/Users/xuhangdai/Desktop/Projects/OptimalTransport/extra_bio_ligands_boltz_af3/boltz_results_5bvs_EIC/5bvs_EIC_model_8_chainB.pdb
 20 19 0 0 0
SMALL
GASTEIGER

@<TRIPOS>ATOM
      1  C41       -3.0940    2.6090    2.3830 C.3     0  LIG0        0.0000
      2  C45       -4.0780    3.1070    3.4130 C.3     0  LIG0        0.0000
      3  C49       -4.5560    4.5190    3.1290 C.3     0  LIG0        0.0003
      4  C47       -5.6780    4.9170    4.0400 C.3     0  LIG0        0.0047
      5  C43       -6.8720    4.0110    3.8660 C.3     0  LIG0        0.0257
      6  C38       -7.3010    3.3980    5.1490 C.2     0  LIG0       -0.0304
      7  C36       -7.7890    2.0960    5.1900 C.2     0  LIG0       -0.0260
      8  C40       -7.6730    1.2160    3.9900 C.3     0  LIG0        0.0513
      9  C37       -8.3420   -0.1120    4.1880 C.2     0  LIG0       -0.0260
     10  C39       -7.8200   -1.2100    3.6000 C.2     0  LIG0       -0.0304
     11  C44       -6.4650   -1.0940    2.9660 C.3     0  LIG0        0.0257
     12  C48       -6.1850   -2.2070    1.9940 C.3     0  LIG0        0.0047
     13  C51       -4.7940   -2.1920    1.4280 C.3     0  LIG0        0.0003
     14  C52       -4.4560   -0.9460    0.6600 C.3     0  LIG0        0.0000
     15  C50       -3.5170   -1.2240   -0.4830 C.3     0  LIG0        0.0006
     16  C46       -2.6290   -0.0520   -0.8440 C.3     0  LIG0        0.0118
     17  C42       -3.3650    1.1710   -1.3210 C.3     0  LIG0        0.1141
     18  C35       -2.4650    2.3700   -1.6150 C.2     0  LIG0        0.3649
     19  O33       -1.2400    2.2560   -1.4950 O.co2   0  LIG0       -0.2457
     20  O34       -2.9870    3.4320   -1.9670 O.co2   0  LIG0       -0.2457
@<TRIPOS>BOND
     1    20    18   ar
     2    18    19   ar
     3    18    17    1
     4    17    16    1
     5    16    15    1
     6    15    14    1
     7    14    13    1
     8    13    12    1
     9    12    11    1
    10     1     2    1
    11    11    10    1
    12     3     2    1
    13     3     4    1
    14    10     9    2
    15     5     4    1
    16     5     6    1
    17     8     9    1
    18     8     7    1
    19     6     7    2
