@<TRIPOS>MOLECULE
/Users/xuhangdai/Desktop/Projects/OptimalTransport/extra_bio_ligands_boltz_af3/boltz_results_5bvs_EIC/5bvs_EIC_model_20_chainB.pdb
 20 19 0 0 0
SMALL
GASTEIGER

@<TRIPOS>ATOM
      1  C41       -5.2880   -1.0160   -6.4970 C.3     0  LIG0        0.0000
      2  C45       -6.6090   -0.8720   -7.2450 C.3     0  LIG0        0.0000
      3  C49       -6.5690    0.2300   -8.2960 C.3     0  LIG0        0.0003
      4  C47       -6.2420   -0.3220   -9.6580 C.3     0  LIG0        0.0047
      5  C43       -4.7810   -0.6560   -9.7440 C.3     0  LIG0        0.0257
      6  C38       -4.5480   -1.7290  -10.7460 C.2     0  LIG0       -0.0304
      7  C36       -3.2720   -2.2140  -10.9210 C.2     0  LIG0       -0.0260
      8  C40       -2.1860   -1.6790  -10.0560 C.3     0  LIG0        0.0513
      9  C37       -0.8780   -2.3430  -10.3500 C.2     0  LIG0       -0.0260
     10  C39        0.0060   -2.4920   -9.3390 C.2     0  LIG0       -0.0304
     11  C44       -0.4770   -2.1650   -7.9600 C.3     0  LIG0        0.0257
     12  C48        0.6350   -2.2130   -6.9450 C.3     0  LIG0        0.0047
     13  C51        0.0840   -2.0310   -5.5500 C.3     0  LIG0        0.0003
     14  C52       -0.1440   -0.5820   -5.2220 C.3     0  LIG0        0.0000
     15  C50       -0.9580   -0.4300   -3.9540 C.3     0  LIG0        0.0006
     16  C46       -0.8060    0.9470   -3.3530 C.3     0  LIG0        0.0118
     17  C42       -1.5890    1.9820   -4.1090 C.3     0  LIG0        0.1141
     18  C35       -2.8340    2.4790   -3.3880 C.2     0  LIG0        0.3649
     19  O33       -3.1910    1.9480   -2.3220 O.co2   0  LIG0       -0.2457
     20  O34       -3.4800    3.4090   -3.8910 O.co2   0  LIG0       -0.2457
@<TRIPOS>BOND
     1     7     6    2
     2     7     8    1
     3     6     5    1
     4     9     8    1
     5     9    10    2
     6     5     4    1
     7     4     3    1
     8    10    11    1
     9     3     2    1
    10    11    12    1
    11     2     1    1
    12    12    13    1
    13    13    14    1
    14    14    15    1
    15    17    18    1
    16    17    16    1
    17    15    16    1
    18    20    18   ar
    19    18    19   ar
