@<TRIPOS>MOLECULE
/Users/xuhangdai/Desktop/Projects/OptimalTransport/extra_bio_ligands_boltz_af3/boltz_results_5bvs_EIC/5bvs_EIC_model_4_chainB.pdb
 20 19 0 0 0
SMALL
GASTEIGER

@<TRIPOS>ATOM
      1  C41        5.8850    1.0790   -2.9630 C.3     0  LIG0        0.0000
      2  C45        7.3710    1.2230   -2.6540 C.3     0  LIG0        0.0000
      3  C49        8.2410    0.6560   -3.7580 C.3     0  LIG0        0.0003
      4  C47        8.8840    1.7530   -4.5610 C.3     0  LIG0        0.0047
      5  C43        7.8430    2.4450   -5.3940 C.3     0  LIG0        0.0257
      6  C38        8.3840    3.7010   -5.9680 C.2     0  LIG0       -0.0304
      7  C36        7.5350    4.5130   -6.6750 C.2     0  LIG0       -0.0260
      8  C40        6.1010    4.1220   -6.7840 C.3     0  LIG0        0.0513
      9  C37        5.3090    5.1440   -7.5350 C.2     0  LIG0       -0.0260
     10  C39        4.0530    5.4090   -7.1150 C.2     0  LIG0       -0.0304
     11  C44        3.6750    4.8800   -5.7710 C.3     0  LIG0        0.0257
     12  C48        2.1910    4.8820   -5.5720 C.3     0  LIG0        0.0047
     13  C51        1.8610    4.3740   -4.1980 C.3     0  LIG0        0.0003
     14  C52        1.4670    2.9400   -4.2390 C.3     0  LIG0        0.0000
     15  C50        1.2440    2.4010   -2.8480 C.3     0  LIG0        0.0006
     16  C46        0.6430    1.0200   -2.8840 C.3     0  LIG0        0.0118
     17  C42        1.6080    0.0160   -3.4480 C.3     0  LIG0        0.1141
     18  C35        2.1200   -0.9880   -2.4320 C.2     0  LIG0        0.3649
     19  O33        1.8610   -0.8330   -1.2260 O.co2   0  LIG0       -0.2457
     20  O34        2.8030   -1.9400   -2.8340 O.co2   0  LIG0       -0.2457
@<TRIPOS>BOND
     1     9    10    2
     2     9     8    1
     3    10    11    1
     4     8     7    1
     5     7     6    2
     6     6     5    1
     7    11    12    1
     8    12    13    1
     9     5     4    1
    10     4     3    1
    11    14    13    1
    12    14    15    1
    13     3     2    1
    14    17    16    1
    15    17    18    1
    16     1     2    1
    17    16    15    1
    18    20    18   ar
    19    18    19   ar
