@<TRIPOS>MOLECULE
/Users/xuhangdai/Desktop/Projects/OptimalTransport/extra_bio_ligands_boltz_af3/boltz_results_5bvs_EIC/5bvs_EIC_model_40_chainB.pdb
 20 19 0 0 0
SMALL
GASTEIGER

@<TRIPOS>ATOM
      1  C41       -2.5700   -5.3860    2.1950 C.3     0  LIG0        0.0000
      2  C45       -3.8270   -5.5780    2.9920 C.3     0  LIG0        0.0000
      3  C49       -4.0010   -7.0210    3.4100 C.3     0  LIG0        0.0003
      4  C47       -4.9710   -7.1180    4.5340 C.3     0  LIG0        0.0047
      5  C43       -4.4830   -6.2730    5.6810 C.3     0  LIG0        0.0257
      6  C38       -5.5650   -6.0690    6.6680 C.2     0  LIG0       -0.0307
      7  C36       -5.3740   -5.1330    7.6510 C.2     0  LIG0       -0.0307
      8  C40       -4.1190   -4.3250    7.6100 C.3     0  LIG0        0.0257
      9  C37       -4.1040   -3.2520    8.6450 C.3     0  LIG0        0.0047
     10  C39       -3.6470   -2.0350    8.2760 C.3     0  LIG0        0.0003
     11  C44       -3.6150   -1.7560    6.8140 C.3     0  LIG0        0.0000
     12  C48       -2.4380   -0.9270    6.4230 C.3     0  LIG0        0.0000
     13  C51       -2.4600   -0.7100    4.9460 C.3     0  LIG0        0.0000
     14  C52       -1.1540   -1.0480    4.3480 C.3     0  LIG0        0.0000
     15  C50       -1.2250   -0.9420    2.8480 C.3     0  LIG0        0.0006
     16  C46        0.0610   -1.3660    2.1950 C.3     0  LIG0        0.0118
     17  C42        0.2710   -2.8420    2.3150 C.3     0  LIG0        0.1141
     18  C35        0.2570   -3.5810    0.9930 C.2     0  LIG0        0.3649
     19  O33        0.6880   -4.7230    0.9470 O.co2   0  LIG0       -0.2457
     20  O34       -0.2120   -3.0110   -0.0200 O.co2   0  LIG0       -0.2457
@<TRIPOS>BOND
     1    20    18   ar
     2    19    18   ar
     3    18    17    1
     4     1     2    1
     5    16    17    1
     6    16    15    1
     7    15    14    1
     8     2     3    1
     9     3     4    1
    10    14    13    1
    11     4     5    1
    12    13    12    1
    13     5     6    1
    14    12    11    1
    15     6     7    2
    16    11    10    1
    17     8     7    1
    18     8     9    1
    19    10     9    1
