@<TRIPOS>MOLECULE
/Users/xuhangdai/Desktop/Projects/OptimalTransport/extra_bio_ligands_boltz_af3/boltz_results_5bvs_EIC/5bvs_EIC_model_12_chainB.pdb
 20 19 0 0 0
SMALL
GASTEIGER

@<TRIPOS>ATOM
      1  C41       -2.3790    1.7570   -2.7050 C.3     0  LIG0        0.0000
      2  C45       -3.6320    2.5950   -2.5510 C.3     0  LIG0        0.0000
      3  C49       -3.5650    3.8890   -3.3340 C.3     0  LIG0        0.0003
      4  C47       -4.6260    3.9320   -4.3890 C.3     0  LIG0        0.0047
      5  C43       -4.2960    2.9540   -5.4870 C.3     0  LIG0        0.0257
      6  C38       -5.5340    2.3710   -6.0620 C.2     0  LIG0       -0.0307
      7  C36       -5.4520    1.2030   -6.7870 C.2     0  LIG0       -0.0307
      8  C40       -4.1590    0.4540   -6.8130 C.3     0  LIG0        0.0257
      9  C37       -4.2190   -0.7360   -7.7100 C.3     0  LIG0        0.0047
     10  C39       -3.5380   -1.8610   -7.3610 C.3     0  LIG0        0.0003
     11  C44       -3.1890   -2.0510   -5.9190 C.3     0  LIG0        0.0000
     12  C48       -1.7280   -2.3290   -5.7210 C.3     0  LIG0        0.0000
     13  C51       -1.4070   -2.2620   -4.2610 C.3     0  LIG0        0.0000
     14  C52       -0.0040   -1.8520   -4.0340 C.3     0  LIG0        0.0000
     15  C50        0.1980   -1.4360   -2.5980 C.3     0  LIG0        0.0006
     16  C46        1.5890   -0.9130   -2.3570 C.3     0  LIG0        0.0118
     17  C42        1.7410    0.4880   -2.8450 C.3     0  LIG0        0.1141
     18  C35        1.8050    1.5260   -1.7420 C.2     0  LIG0        0.3649
     19  O33        1.6250    1.1820   -0.5620 O.co2   0  LIG0       -0.2457
     20  O34        2.0280    2.6990   -2.0470 O.co2   0  LIG0       -0.2457
@<TRIPOS>BOND
     1     9    10    1
     2     9     8    1
     3    10    11    1
     4     8     7    1
     5     7     6    2
     6     6     5    1
     7    11    12    1
     8    12    13    1
     9     5     4    1
    10     4     3    1
    11    13    14    1
    12    14    15    1
    13     3     2    1
    14    17    16    1
    15    17    18    1
    16     1     2    1
    17    15    16    1
    18    20    18   ar
    19    18    19   ar
