@<TRIPOS>MOLECULE
/Users/xuhangdai/Desktop/Projects/OptimalTransport/extra_bio_ligands_boltz_af3/boltz_results_5bvs_EIC/5bvs_EIC_model_26_chainB.pdb
 20 19 0 0 0
SMALL
GASTEIGER

@<TRIPOS>ATOM
      1  C41        2.7830    0.7610   -3.8810 C.3     0  LIG0        0.0000
      2  C45        3.6980    0.4460   -5.0370 C.3     0  LIG0        0.0000
      3  C49        3.8830    1.6160   -5.9780 C.3     0  LIG0        0.0003
      4  C47        5.3000    1.6610   -6.4680 C.3     0  LIG0        0.0047
      5  C43        6.2080    2.0470   -5.3250 C.3     0  LIG0        0.0257
      6  C38        7.4330    1.2100   -5.3150 C.2     0  LIG0       -0.0304
      7  C36        8.1440    1.0830   -4.1350 C.2     0  LIG0       -0.0260
      8  C40        7.5260    1.6090   -2.8860 C.3     0  LIG0        0.0513
      9  C37        8.4390    1.4750   -1.7130 C.2     0  LIG0       -0.0260
     10  C39        7.8760    1.2960   -0.4960 C.2     0  LIG0       -0.0304
     11  C44        6.4050    1.0190   -0.4710 C.3     0  LIG0        0.0257
     12  C48        5.8470    0.9760    0.9270 C.3     0  LIG0        0.0047
     13  C51        4.4040    0.5440    0.9120 C.3     0  LIG0        0.0003
     14  C52        3.4970    1.6340    0.4320 C.3     0  LIG0        0.0000
     15  C50        2.0850    1.1400    0.2530 C.3     0  LIG0        0.0006
     16  C46        1.0870    2.2670    0.1930 C.3     0  LIG0        0.0118
     17  C42        1.2680    3.1080   -1.0370 C.3     0  LIG0        0.1141
     18  C35        0.0940    3.0750   -1.9970 C.2     0  LIG0        0.3649
     19  O33       -0.7610    2.1830   -1.8990 O.co2   0  LIG0       -0.2457
     20  O34        0.0260    3.9400   -2.8760 O.co2   0  LIG0       -0.2457
@<TRIPOS>BOND
     1     4     3    1
     2     4     5    1
     3     3     2    1
     4     5     6    1
     5     6     7    2
     6     2     1    1
     7     7     8    1
     8     8     9    1
     9    20    18   ar
    10    18    19   ar
    11    18    17    1
    12     9    10    2
    13    17    16    1
    14    10    11    1
    15    11    12    1
    16    16    15    1
    17    15    14    1
    18    14    13    1
    19    13    12    1
