@<TRIPOS>MOLECULE
/Users/xuhangdai/Desktop/Projects/OptimalTransport/extra_bio_ligands_boltz_af3/boltz_results_5bvs_EIC/5bvs_EIC_model_37_chainB.pdb
 20 19 0 0 0
SMALL
GASTEIGER

@<TRIPOS>ATOM
      1  C41       -3.9630   -3.4500    0.7320 C.3     0  LIG0        0.0000
      2  C45       -5.2100   -3.2470    1.5610 C.3     0  LIG0        0.0000
      3  C49       -6.0680   -4.4910    1.6180 C.3     0  LIG0        0.0003
      4  C47       -6.2410   -4.9500    3.0320 C.3     0  LIG0        0.0047
      5  C43       -4.9180   -5.4070    3.5800 C.3     0  LIG0        0.0257
      6  C38       -4.9980   -5.6440    5.0370 C.2     0  LIG0       -0.0304
      7  C36       -3.8430   -5.9380    5.7080 C.2     0  LIG0       -0.0260
      8  C40       -2.5710   -5.9330    4.9370 C.3     0  LIG0        0.0513
      9  C37       -1.3880   -6.1260    5.8190 C.2     0  LIG0       -0.0260
     10  C39       -0.2420   -5.5000    5.4970 C.2     0  LIG0       -0.0304
     11  C44       -0.3080   -4.4850    4.4090 C.3     0  LIG0        0.0257
     12  C48        1.0490   -3.9220    4.1010 C.3     0  LIG0        0.0047
     13  C51        0.9400   -2.7670    3.1470 C.3     0  LIG0        0.0003
     14  C52        0.8500   -3.2260    1.7320 C.3     0  LIG0        0.0000
     15  C50        0.6760   -2.0580    0.8030 C.3     0  LIG0        0.0006
     16  C46        0.8040   -2.4710   -0.6340 C.3     0  LIG0        0.0118
     17  C42       -0.3670   -3.2890   -1.0740 C.3     0  LIG0        0.1141
     18  C35       -1.1780   -2.6510   -2.1820 C.2     0  LIG0        0.3649
     19  O33       -1.1100   -1.4290   -2.3760 O.co2   0  LIG0       -0.2457
     20  O34       -1.9120   -3.3780   -2.8630 O.co2   0  LIG0       -0.2457
@<TRIPOS>BOND
     1    20    18   ar
     2    19    18   ar
     3    18    17    1
     4    17    16    1
     5    16    15    1
     6     1     2    1
     7    15    14    1
     8     2     3    1
     9     3     4    1
    10    14    13    1
    11     4     5    1
    12    13    12    1
    13     5     6    1
    14    12    11    1
    15    11    10    1
    16     8     7    1
    17     8     9    1
    18     6     7    2
    19    10     9    2
