@<TRIPOS>MOLECULE
/Users/xuhangdai/Desktop/Projects/OptimalTransport/extra_bio_ligands_boltz_af3/boltz_results_5bvs_EIC/5bvs_EIC_model_14_chainB.pdb
 20 19 0 0 0
SMALL
GASTEIGER

@<TRIPOS>ATOM
      1  C41       -0.2950    3.2390   -6.6420 C.3     0  LIG0        0.0000
      2  C45       -0.1840    3.5970   -8.1040 C.3     0  LIG0        0.0000
      3  C49       -0.2600    5.0920   -8.3360 C.3     0  LIG0        0.0003
      4  C47        0.6320    5.5020   -9.4650 C.3     0  LIG0        0.0047
      5  C43        2.0670    5.2320   -9.1110 C.3     0  LIG0        0.0257
      6  C38        2.7140    4.3990  -10.1510 C.2     0  LIG0       -0.0304
      7  C36        3.7750    3.5760   -9.8150 C.2     0  LIG0       -0.0260
      8  C40        4.1340    3.3930   -8.3820 C.3     0  LIG0        0.0513
      9  C37        5.3480    2.5390   -8.2200 C.2     0  LIG0       -0.0260
     10  C39        5.4180    1.7050   -7.1590 C.2     0  LIG0       -0.0304
     11  C44        4.1730    1.5240   -6.3530 C.3     0  LIG0        0.0257
     12  C48        4.4130    0.7310   -5.0950 C.3     0  LIG0        0.0047
     13  C51        3.1200    0.4440   -4.3830 C.3     0  LIG0        0.0003
     14  C52        2.5550    1.6700   -3.7240 C.3     0  LIG0        0.0000
     15  C50        1.1530    1.4350   -3.2170 C.3     0  LIG0        0.0006
     16  C46        0.7450    2.4620   -2.1900 C.3     0  LIG0        0.0118
     17  C42        0.6430    3.8410   -2.7720 C.3     0  LIG0        0.1141
     18  C35       -0.7590    4.4370   -2.7650 C.2     0  LIG0        0.3649
     19  O33       -0.9020    5.6390   -2.9120 O.co2   0  LIG0       -0.2457
     20  O34       -1.7440    3.6780   -2.6240 O.co2   0  LIG0       -0.2457
@<TRIPOS>BOND
     1     6     7    2
     2     6     5    1
     3     7     8    1
     4     4     5    1
     5     4     3    1
     6     8     9    1
     7     3     2    1
     8     9    10    2
     9     2     1    1
    10    10    11    1
    11    11    12    1
    12    12    13    1
    13    13    14    1
    14    14    15    1
    15    15    16    1
    16    19    18   ar
    17    17    18    1
    18    17    16    1
    19    18    20   ar
