@<TRIPOS>MOLECULE
/Users/xuhangdai/Desktop/Projects/OptimalTransport/extra_bio_ligands_boltz_af3/boltz_results_5bvs_EIC/5bvs_EIC_model_29_chainB.pdb
 20 19 0 0 0
SMALL
GASTEIGER

@<TRIPOS>ATOM
      1  C41        3.2300    2.5010   -3.0120 C.3     0  LIG0        0.0000
      2  C45        3.6360    3.1950   -4.2810 C.3     0  LIG0        0.0000
      3  C49        4.7480    4.1990   -4.0680 C.3     0  LIG0        0.0003
      4  C47        5.4220    4.4840   -5.3760 C.3     0  LIG0        0.0047
      5  C43        6.0630    3.2250   -5.9030 C.3     0  LIG0        0.0257
      6  C38        5.9530    3.1370   -7.3790 C.2     0  LIG0       -0.0304
      7  C36        5.9060    1.8900   -7.9790 C.2     0  LIG0       -0.0260
      8  C40        5.7640    0.6810   -7.1160 C.3     0  LIG0        0.0513
      9  C37        5.7310   -0.5840   -7.9130 C.2     0  LIG0       -0.0260
     10  C39        5.0320   -1.6400   -7.4260 C.2     0  LIG0       -0.0304
     11  C44        4.1570   -1.3940   -6.2370 C.3     0  LIG0        0.0257
     12  C48        3.5900   -2.6630   -5.6610 C.3     0  LIG0        0.0047
     13  C51        2.5320   -2.3740   -4.6290 C.3     0  LIG0        0.0003
     14  C52        3.1050   -1.9960   -3.3010 C.3     0  LIG0        0.0000
     15  C50        2.0290   -1.6540   -2.3020 C.3     0  LIG0        0.0006
     16  C46        2.5470   -1.5470   -0.8880 C.3     0  LIG0        0.0118
     17  C42        3.5690   -0.4530   -0.7410 C.3     0  LIG0        0.1141
     18  C35        3.2560    0.5630    0.3480 C.2     0  LIG0        0.3649
     19  O33        2.0840    0.7390    0.7030 O.co2   0  LIG0       -0.2457
     20  O34        4.1840    1.2100    0.8400 O.co2   0  LIG0       -0.2457
@<TRIPOS>BOND
     1     7     6    2
     2     7     8    1
     3     9    10    2
     4     9     8    1
     5    10    11    1
     6     6     5    1
     7    11    12    1
     8     5     4    1
     9    12    13    1
    10     4     3    1
    11    13    14    1
    12     2     3    1
    13     2     1    1
    14    14    15    1
    15    15    16    1
    16    16    17    1
    17    17    18    1
    18    18    19   ar
    19    18    20   ar
