@<TRIPOS>MOLECULE
/Users/xuhangdai/Desktop/Projects/OptimalTransport/extra_bio_ligands_boltz_af3/boltz_results_5bvs_EIC/5bvs_EIC_model_3_chainB.pdb
 20 19 0 0 0
SMALL
GASTEIGER

@<TRIPOS>ATOM
      1  C41        8.2970   -2.6290    1.5650 C.3     0  LIG0        0.0000
      2  C45        8.8380   -3.4980    2.6770 C.3     0  LIG0        0.0000
      3  C49        7.8060   -4.4440    3.2540 C.3     0  LIG0        0.0003
      4  C47        8.1900   -5.8860    3.0160 C.3     0  LIG0        0.0047
      5  C43        7.4060   -6.4540    1.8630 C.3     0  LIG0        0.0257
      6  C38        8.3290   -7.0420    0.8550 C.2     0  LIG0       -0.0304
      7  C36        7.8070   -7.6600   -0.2550 C.2     0  LIG0       -0.0260
      8  C40        6.3310   -7.6630   -0.4220 C.3     0  LIG0        0.0513
      9  C37        5.9330   -8.3840   -1.6630 C.2     0  LIG0       -0.0260
     10  C39        4.8200   -7.9700   -2.2940 C.2     0  LIG0       -0.0304
     11  C44        4.2760   -6.6400   -1.8800 C.3     0  LIG0        0.0257
     12  C48        2.8220   -6.4930   -2.2170 C.3     0  LIG0        0.0047
     13  C51        2.3360   -5.1250   -1.8110 C.3     0  LIG0        0.0003
     14  C52        1.8300   -5.1250   -0.4060 C.3     0  LIG0        0.0000
     15  C50        1.5850   -3.7210    0.0830 C.3     0  LIG0        0.0006
     16  C46        0.7170   -3.7060    1.3130 C.3     0  LIG0        0.0118
     17  C42        1.4430   -4.2550    2.5060 C.3     0  LIG0        0.1141
     18  C35        1.6750   -3.2360    3.6070 C.2     0  LIG0        0.3649
     19  O33        1.4930   -2.0320    3.3810 O.co2   0  LIG0       -0.2457
     20  O34        2.0630   -3.6340    4.7080 O.co2   0  LIG0       -0.2457
@<TRIPOS>BOND
     1    10    11    1
     2    10     9    2
     3    12    11    1
     4    12    13    1
     5    13    14    1
     6     9     8    1
     7     8     7    1
     8    14    15    1
     9     7     6    2
    10    15    16    1
    11     6     5    1
    12    16    17    1
    13     1     2    1
    14     5     4    1
    15    17    18    1
    16     2     3    1
    17     4     3    1
    18    19    18   ar
    19    18    20   ar
