@<TRIPOS>MOLECULE
/Users/xuhangdai/Desktop/Projects/OptimalTransport/extra_bio_ligands_boltz_af3/boltz_results_5bvs_EIC/5bvs_EIC_model_21_chainB.pdb
 20 19 0 0 0
SMALL
GASTEIGER

@<TRIPOS>ATOM
      1  C41       -1.4000    4.9450   -1.5090 C.3     0  LIG0        0.0000
      2  C45       -1.4030    6.3050   -2.1960 C.3     0  LIG0        0.0000
      3  C49       -2.8060    6.8010   -2.5210 C.3     0  LIG0        0.0003
      4  C47       -3.0430    8.1810   -1.9640 C.3     0  LIG0        0.0047
      5  C43       -3.1220    8.1340   -0.4550 C.3     0  LIG0        0.0257
      6  C38       -2.1580    9.0900    0.1520 C.2     0  LIG0       -0.0304
      7  C36       -1.6760    8.8770    1.4390 C.2     0  LIG0       -0.0260
      8  C40       -1.9330    7.5730    2.1230 C.3     0  LIG0        0.0513
      9  C37       -1.4740    7.5920    3.5530 C.2     0  LIG0       -0.0260
     10  C39       -1.0700    6.4300    4.1260 C.2     0  LIG0       -0.0304
     11  C44       -0.8520    5.2480    3.2240 C.3     0  LIG0        0.0257
     12  C48       -0.7930    3.9430    3.9780 C.3     0  LIG0        0.0047
     13  C51       -0.4410    2.7960    3.0600 C.3     0  LIG0        0.0003
     14  C52       -1.6510    2.1960    2.4130 C.3     0  LIG0        0.0000
     15  C50       -1.2860    1.1680    1.3620 C.3     0  LIG0        0.0006
     16  C46       -2.4870    0.3860    0.8680 C.3     0  LIG0        0.0118
     17  C42       -3.5210    1.2760    0.2300 C.3     0  LIG0        0.1141
     18  C35       -3.8900    0.9040   -1.2060 C.2     0  LIG0        0.3649
     19  O33       -3.1100    0.2110   -1.8860 O.co2   0  LIG0       -0.2457
     20  O34       -4.9600    1.3170   -1.6690 O.co2   0  LIG0       -0.2457
@<TRIPOS>BOND
     1     3     2    1
     2     3     4    1
     3     2     1    1
     4     4     5    1
     5    19    18   ar
     6    20    18   ar
     7    18    17    1
     8     5     6    1
     9     6     7    2
    10    17    16    1
    11    16    15    1
    12    15    14    1
    13     7     8    1
    14     8     9    1
    15    14    13    1
    16    13    12    1
    17    11    12    1
    18    11    10    1
    19     9    10    2
