@<TRIPOS>MOLECULE
/Users/xuhangdai/Desktop/Projects/OptimalTransport/extra_bio_ligands_boltz_af3/boltz_results_5bvs_EIC/5bvs_EIC_model_28_chainB.pdb
 20 19 0 0 0
SMALL
GASTEIGER

@<TRIPOS>ATOM
      1  C41        1.9450   -3.6090    5.6520 C.3     0  LIG0        0.0000
      2  C45        3.0200   -3.4650    6.6790 C.3     0  LIG0        0.0000
      3  C49        3.2140   -4.7330    7.4680 C.3     0  LIG0        0.0003
      4  C47        4.6680   -4.9660    7.7000 C.3     0  LIG0        0.0047
      5  C43        5.3420   -5.1760    6.3780 C.3     0  LIG0        0.0257
      6  C38        6.8040   -5.1630    6.5340 C.2     0  LIG0       -0.0304
      7  C36        7.5670   -5.2240    5.4090 C.2     0  LIG0       -0.0260
      8  C40        6.8670   -5.2570    4.1030 C.3     0  LIG0        0.0513
      9  C37        7.8130   -5.0730    2.9770 C.2     0  LIG0       -0.0260
     10  C39        7.4500   -4.2730    1.9690 C.2     0  LIG0       -0.0304
     11  C44        6.2280   -3.4510    2.1680 C.3     0  LIG0        0.0257
     12  C48        5.8660   -2.7110    0.9230 C.3     0  LIG0        0.0047
     13  C51        4.7920   -1.7040    1.2040 C.3     0  LIG0        0.0003
     14  C52        3.4550   -2.3430    1.3050 C.3     0  LIG0        0.0000
     15  C50        2.4030   -1.3280    1.6370 C.3     0  LIG0        0.0006
     16  C46        1.0330   -1.8250    1.3040 C.3     0  LIG0        0.0118
     17  C42        0.6160   -2.9360    2.2090 C.3     0  LIG0        0.1141
     18  C35       -0.4600   -2.5630    3.2050 C.2     0  LIG0        0.3649
     19  O33       -0.7570   -1.3730    3.3780 O.co2   0  LIG0       -0.2457
     20  O34       -1.0170   -3.4630    3.8390 O.co2   0  LIG0       -0.2457
@<TRIPOS>BOND
     1    12    13    1
     2    12    11    1
     3    13    14    1
     4    16    15    1
     5    16    17    1
     6    14    15    1
     7    10    11    1
     8    10     9    2
     9    17    18    1
    10     9     8    1
    11    18    19   ar
    12    18    20   ar
    13     8     7    1
    14     7     6    2
    15     1     2    1
    16     5     6    1
    17     5     4    1
    18     2     3    1
    19     3     4    1
