@<TRIPOS>MOLECULE
/Users/xuhangdai/Desktop/Projects/OptimalTransport/extra_bio_ligands_boltz_af3/boltz_results_5bvs_EIC/5bvs_EIC_model_17_chainB.pdb
 20 19 0 0 0
SMALL
GASTEIGER

@<TRIPOS>ATOM
      1  C41        0.8990   -3.7880   -5.3030 C.3     0  LIG0        0.0000
      2  C45        0.9110   -4.8650   -6.3800 C.3     0  LIG0        0.0000
      3  C49       -0.3920   -4.9060   -7.1680 C.3     0  LIG0        0.0003
      4  C47       -0.1980   -4.3490   -8.5500 C.3     0  LIG0        0.0047
      5  C43       -0.0060   -2.8580   -8.4710 C.3     0  LIG0        0.0257
      6  C38        0.9410   -2.4250   -9.5290 C.2     0  LIG0       -0.0304
      7  C36        1.3120   -1.1070   -9.5860 C.2     0  LIG0       -0.0260
      8  C40        0.7630   -0.1700   -8.5670 C.3     0  LIG0        0.0513
      9  C37        1.4720    1.1440   -8.6180 C.2     0  LIG0       -0.0260
     10  C39        1.7030    1.7910   -7.4610 C.2     0  LIG0       -0.0304
     11  C44        1.3280    1.0750   -6.2040 C.3     0  LIG0        0.0257
     12  C48        1.7670    1.8290   -4.9800 C.3     0  LIG0        0.0047
     13  C51        1.7330    0.9290   -3.7750 C.3     0  LIG0        0.0003
     14  C52        0.3350    0.6550   -3.3240 C.3     0  LIG0        0.0000
     15  C50        0.3470   -0.3190   -2.1750 C.3     0  LIG0        0.0006
     16  C46       -1.0210   -0.4650   -1.5730 C.3     0  LIG0        0.0118
     17  C42       -1.9110   -1.2710   -2.4680 C.3     0  LIG0        0.1141
     18  C35       -2.3210   -2.6000   -1.8580 C.2     0  LIG0        0.3649
     19  O33       -1.6440   -3.0940   -0.9420 O.co2   0  LIG0       -0.2457
     20  O34       -3.3260   -3.1640   -2.3100 O.co2   0  LIG0       -0.2457
@<TRIPOS>BOND
     1     7     6    2
     2     7     8    1
     3     6     5    1
     4     9     8    1
     5     9    10    2
     6     4     5    1
     7     4     3    1
     8    10    11    1
     9     3     2    1
    10     2     1    1
    11    11    12    1
    12    12    13    1
    13    13    14    1
    14    14    15    1
    15    17    18    1
    16    17    16    1
    17    20    18   ar
    18    15    16    1
    19    18    19   ar
