@<TRIPOS>MOLECULE
/Users/xuhangdai/Desktop/Projects/OptimalTransport/extra_bio_ligands_boltz_af3/boltz_results_4csv_imatinib/4csv_imatinib_model_0_chainB.pdb
 37 41 0 0 0
SMALL
GASTEIGER

@<TRIPOS>ATOM
      1  C62       -7.8250   -7.1270   -7.5660 C.3     0  LIG0        0.0324
      2  C56       -7.6940   -5.9020   -6.6700 C.ar    0  LIG0       -0.0057
      3  C49       -8.8040   -5.2920   -6.1450 C.ar    0  LIG0       -0.0016
      4  C47       -8.6810   -4.1710   -5.3330 C.ar    0  LIG0        0.0164
      5  C54       -7.4410   -3.6190   -5.0490 C.ar    0  LIG0        0.0750
      6  C48       -6.3230   -4.2220   -5.5750 C.ar    0  LIG0        0.0336
      7  C55       -6.4230   -5.3580   -6.3880 C.ar    0  LIG0        0.0790
      8  N59       -5.2880   -5.9250   -6.9270 N.pl3   0  LIG0       -0.1464
      9  C37       -4.5950   -6.9510   -6.3450 C.1     0  LIG0        0.1117
     10  N33       -5.0080   -7.3940   -5.1430 N.2     0  LIG0       -0.2015
     11  C38       -4.2940   -8.4390   -4.6100 C.3     0  LIG0        0.1653
     12  C42       -3.1900   -8.9830   -5.2890 C.2     0  LIG0        0.0208
     13  C41       -2.8470   -8.4610   -6.5320 C.2     0  LIG0        0.0916
     14  N35       -3.5600   -7.4380   -7.0550 N.2     0  LIG0       -0.1806
     15  C53       -1.7190   -8.9630   -7.3350 C.ar    0  LIG0        0.0374
     16  C46       -0.9040   -9.9990   -6.8940 C.ar    0  LIG0        0.0047
     17  C43        0.1420  -10.4300   -7.6750 C.ar    0  LIG0        0.0207
     18  C39        0.3750   -9.8150   -8.8910 C.ar    0  LIG0        0.0989
     19  N34       -0.3960   -8.8200   -9.3330 N.ar    0  LIG0       -0.2423
     20  C40       -1.4310   -8.3940   -8.5670 C.ar    0  LIG0        0.1003
     21  N58       -7.4290   -2.4510   -4.2550 N.am    0  LIG0       -0.1754
     22  C36       -6.3610   -1.6370   -3.9740 C.2     0  LIG0        0.2690
     23  O32       -5.2420   -1.9340   -4.3060 O.2     0  LIG0       -0.2680
     24  C52       -6.6200   -0.3640   -3.2410 C.ar    0  LIG0        0.0554
     25  C44       -7.8520   -0.0370   -2.7230 C.ar    0  LIG0        0.0043
     26  C50       -8.0560    1.1690   -2.0550 C.ar    0  LIG0       -0.0028
     27  C57       -7.0270    2.0880   -1.8870 C.ar    0  LIG0       -0.0061
     28  C51       -5.7710    1.7770   -2.4090 C.ar    0  LIG0       -0.0028
     29  C45       -5.5750    0.5710   -3.0790 C.ar    0  LIG0        0.0043
     30  C64       -7.2370    3.3900   -1.1750 C.3     0  LIG0        0.0992
     31  N61       -7.8300    3.2340    0.1370 N.3     0  LIG0       -0.2665
     32  C67       -6.9050    2.5440    1.0440 C.3     0  LIG0        0.0899
     33  C65       -7.5420    2.3570    2.4160 C.3     0  LIG0        0.0897
     34  N60       -7.9190    3.6630    2.9860 N.3     0  LIG0       -0.2691
     35  C66       -8.8270    4.3670    2.0860 C.3     0  LIG0        0.0897
     36  C68       -8.1840    4.5420    0.7010 C.3     0  LIG0        0.0899
     37  C63       -8.5560    3.4760    4.2960 C.3     0  LIG0        0.0897
@<TRIPOS>BOND
     1    19    18   ar
     2    19    20   ar
     3    18    17   ar
     4    20    15   ar
     5    17    16   ar
     6     1     2    1
     7    15    16   ar
     8    15    13    1
     9    14    13    1
    10    14     9    2
    11     8     7    1
    12     8     9    1
    13     2     7   ar
    14     2     3   ar
    15    13    12    2
    16     7     6   ar
    17     9    10    2
    18     3     4   ar
    19     6     5   ar
    20     4     5   ar
    21    12    11    1
    22    10    11    1
    23     5    21    1
    24    23    22    2
    25    21    22   am
    26    22    24    1
    27    24    29   ar
    28    24    25   ar
    29    29    28   ar
    30    25    26   ar
    31    28    27   ar
    32    26    27   ar
    33    27    30    1
    34    30    31    1
    35    31    36    1
    36    31    32    1
    37    36    35    1
    38    32    33    1
    39    35    34    1
    40    33    34    1
    41    34    37    1
