@<TRIPOS>MOLECULE
/Users/xuhangdai/Desktop/Projects/OptimalTransport/extra_bio_ligands_boltz_af3/boltz_results_4csv_imatinib/4csv_imatinib_model_2_chainB.pdb
 37 41 0 0 0
SMALL
GASTEIGER

@<TRIPOS>ATOM
      1  C62       12.4930   -0.7020   -1.0050 C.3     0  LIG0        0.0324
      2  C56       11.2640   -1.2330   -0.2730 C.ar    0  LIG0       -0.0057
      3  C49       11.3390   -1.5900    1.0560 C.ar    0  LIG0       -0.0016
      4  C47       10.2200   -2.0760    1.7280 C.ar    0  LIG0        0.0164
      5  C54        9.0040   -2.2410    1.0720 C.ar    0  LIG0        0.0750
      6  C48        8.9220   -1.8860   -0.2610 C.ar    0  LIG0        0.0336
      7  C55       10.0350   -1.3860   -0.9560 C.ar    0  LIG0        0.0790
      8  N59        9.9390   -1.0680   -2.3050 N.pl3   0  LIG0       -0.1464
      9  C37        9.6780    0.1910   -2.7850 C.1     0  LIG0        0.1117
     10  N33        9.4360    1.1690   -1.8920 N.2     0  LIG0       -0.2015
     11  C38        9.1980    2.4260   -2.4150 C.3     0  LIG0        0.1653
     12  C42        9.2000    2.6470   -3.8100 C.2     0  LIG0        0.0208
     13  C41        9.4710    1.5750   -4.6580 C.2     0  LIG0        0.0916
     14  N35        9.7090    0.3440   -4.1330 N.2     0  LIG0       -0.1806
     15  C53        9.5100    1.6940   -6.1320 C.ar    0  LIG0        0.0374
     16  C46        9.2370    2.8910   -6.7930 C.ar    0  LIG0        0.0047
     17  C43        9.2820    2.9480   -8.1720 C.ar    0  LIG0        0.0207
     18  C39        9.5940    1.8090   -8.8880 C.ar    0  LIG0        0.0989
     19  N34        9.8590    0.6490   -8.2780 N.ar    0  LIG0       -0.2423
     20  C40        9.8180    0.5880   -6.9200 C.ar    0  LIG0        0.1003
     21  N58        7.9390   -2.7870    1.8320 N.am    0  LIG0       -0.1754
     22  C36        6.7120   -3.2080    1.3790 C.2     0  LIG0        0.2690
     23  O32        6.3640   -3.0290    0.2360 O.2     0  LIG0       -0.2680
     24  C52        5.8020   -3.9000    2.3440 C.ar    0  LIG0        0.0554
     25  C44        4.6240   -4.5210    1.8830 C.ar    0  LIG0        0.0043
     26  C50        3.7580   -5.1810    2.7550 C.ar    0  LIG0       -0.0028
     27  C57        4.0440   -5.2520    4.1180 C.ar    0  LIG0       -0.0061
     28  C51        5.2110   -4.6380    4.5800 C.ar    0  LIG0       -0.0028
     29  C45        6.0750   -3.9780    3.7000 C.ar    0  LIG0        0.0043
     30  C64        3.1150   -5.9710    5.0570 C.3     0  LIG0        0.0992
     31  N61        2.7310   -5.1840    6.2160 N.3     0  LIG0       -0.2665
     32  C67        1.8700   -4.0620    5.8310 C.3     0  LIG0        0.0899
     33  C65        1.4750   -3.2380    7.0500 C.3     0  LIG0        0.0897
     34  N60        0.7880   -4.0880    8.0450 N.3     0  LIG0       -0.2691
     35  C66        1.6350   -5.2120    8.4340 C.3     0  LIG0        0.0897
     36  C68        2.0320   -6.0360    7.1970 C.3     0  LIG0        0.0899
     37  C63        0.4290   -3.2940    9.2270 C.3     0  LIG0        0.0897
@<TRIPOS>BOND
     1    18    19   ar
     2    18    17   ar
     3    19    20   ar
     4    17    16   ar
     5    20    15   ar
     6    16    15   ar
     7    15    13    1
     8    13    14    1
     9    13    12    2
    10    14     9    2
    11    12    11    1
    12     9     8    1
    13     9    10    2
    14    11    10    1
    15     8     7    1
    16     1     2    1
    17     7     2   ar
    18     7     6   ar
    19     2     3   ar
    20     6     5   ar
    21    23    22    2
    22     3     4   ar
    23     5     4   ar
    24     5    21    1
    25    22    21   am
    26    22    24    1
    27    25    24   ar
    28    25    26   ar
    29    24    29   ar
    30    26    27   ar
    31    29    28   ar
    32    27    28   ar
    33    27    30    1
    34    30    31    1
    35    32    31    1
    36    32    33    1
    37    31    36    1
    38    33    34    1
    39    36    35    1
    40    34    35    1
    41    34    37    1
