@<TRIPOS>MOLECULE
/Users/xuhangdai/Desktop/Projects/OptimalTransport/extra_bio_ligands_boltz_af3/boltz_results_4csv_imatinib/4csv_imatinib_model_31_chainB.pdb
 37 41 0 0 0
SMALL
GASTEIGER

@<TRIPOS>ATOM
      1  C62       -4.7840   -3.8810   -8.9960 C.3     0  LIG0        0.0324
      2  C56       -5.1000   -3.3520   -7.6060 C.ar    0  LIG0       -0.0057
      3  C49       -6.2500   -3.7310   -6.9590 C.ar    0  LIG0       -0.0016
      4  C47       -6.5450   -3.2500   -5.6900 C.ar    0  LIG0        0.0164
      5  C54       -5.6990   -2.3560   -5.0480 C.ar    0  LIG0        0.0750
      6  C48       -4.5450   -1.9650   -5.6900 C.ar    0  LIG0        0.0336
      7  C55       -4.2250   -2.4460   -6.9650 C.ar    0  LIG0        0.0790
      8  N59       -3.0720   -2.0170   -7.6020 N.pl3   0  LIG0       -0.1464
      9  C37       -1.8670   -2.6580   -7.5100 C.1     0  LIG0        0.1117
     10  N33       -1.7770   -3.7270   -6.6960 N.2     0  LIG0       -0.2015
     11  C38       -0.5540   -4.3570   -6.6550 C.3     0  LIG0        0.1653
     12  C42        0.5330   -3.8810   -7.4120 C.2     0  LIG0        0.0208
     13  C41        0.3400   -2.7740   -8.2290 C.2     0  LIG0        0.0916
     14  N35       -0.8700   -2.1630   -8.2690 N.2     0  LIG0       -0.1806
     15  C53        1.4050   -2.1960   -9.0710 C.ar    0  LIG0        0.0374
     16  C46        2.6750   -2.7540   -9.1490 C.ar    0  LIG0        0.0047
     17  C43        3.6340   -2.1740   -9.9460 C.ar    0  LIG0        0.0207
     18  C39        3.3190   -1.0370  -10.6560 C.ar    0  LIG0        0.0989
     19  N34        2.1050   -0.4860  -10.6010 N.ar    0  LIG0       -0.2423
     20  C40        1.1560   -1.0510   -9.8160 C.ar    0  LIG0        0.1003
     21  N58       -6.1070   -1.8920   -3.7780 N.am    0  LIG0       -0.1754
     22  C36       -5.5230   -0.9010   -3.0330 C.2     0  LIG0        0.2690
     23  O32       -4.4900   -0.3830   -3.3740 O.2     0  LIG0       -0.2680
     24  C52       -6.2000   -0.4780   -1.7750 C.ar    0  LIG0        0.0554
     25  C44       -5.6750    0.5850   -1.0200 C.ar    0  LIG0        0.0043
     26  C50       -6.2890    1.0060    0.1560 C.ar    0  LIG0       -0.0028
     27  C57       -7.4500    0.3850    0.6020 C.ar    0  LIG0       -0.0061
     28  C51       -7.9740   -0.6630   -0.1480 C.ar    0  LIG0       -0.0028
     29  C45       -7.3520   -1.0830   -1.3220 C.ar    0  LIG0        0.0043
     30  C64       -8.1150    0.8330    1.8620 C.3     0  LIG0        0.0992
     31  N61       -8.4190   -0.2650    2.7510 N.3     0  LIG0       -0.2665
     32  C67       -7.1850   -0.8700    3.2670 C.3     0  LIG0        0.0899
     33  C65       -7.5040   -2.0380    4.1940 C.3     0  LIG0        0.0897
     34  N60       -8.3620   -1.5830    5.3060 N.3     0  LIG0       -0.2691
     35  C66       -9.5930   -0.9790    4.7960 C.3     0  LIG0        0.0897
     36  C68       -9.2580    0.1960    3.8610 C.3     0  LIG0        0.0899
     37  C63       -8.6920   -2.7130    6.1850 C.3     0  LIG0        0.0897
@<TRIPOS>BOND
     1    18    19   ar
     2    18    17   ar
     3    19    20   ar
     4    17    16   ar
     5    20    15   ar
     6    16    15   ar
     7    15    13    1
     8     1     2    1
     9    14    13    1
    10    14     9    2
    11    13    12    2
    12     2     7   ar
    13     2     3   ar
    14     8     9    1
    15     8     7    1
    16     9    10    2
    17    12    11    1
    18     7     6   ar
    19     3     4   ar
    20    10    11    1
    21     4     5   ar
    22     6     5   ar
    23     5    21    1
    24    21    22   am
    25    23    22    2
    26    22    24    1
    27    24    29   ar
    28    24    25   ar
    29    29    28   ar
    30    25    26   ar
    31    28    27   ar
    32    26    27   ar
    33    27    30    1
    34    30    31    1
    35    31    32    1
    36    31    36    1
    37    32    33    1
    38    36    35    1
    39    33    34    1
    40    35    34    1
    41    34    37    1
