@<TRIPOS>MOLECULE
/Users/xuhangdai/Desktop/Projects/OptimalTransport/extra_bio_ligands_boltz_af3/boltz_results_4csv_imatinib/4csv_imatinib_model_11_chainB.pdb
 37 41 0 0 0
SMALL
GASTEIGER

@<TRIPOS>ATOM
      1  C62       -4.6380   -8.7940    8.1380 C.3     0  LIG0        0.0324
      2  C56       -4.0440   -8.5640    6.7560 C.ar    0  LIG0       -0.0057
      3  C49       -4.4050   -9.3570    5.6980 C.ar    0  LIG0       -0.0016
      4  C47       -3.8620   -9.1500    4.4370 C.ar    0  LIG0        0.0164
      5  C54       -2.9250   -8.1540    4.2140 C.ar    0  LIG0        0.0750
      6  C48       -2.5540   -7.3560    5.2690 C.ar    0  LIG0        0.0336
      7  C55       -3.0920   -7.5430    6.5450 C.ar    0  LIG0        0.0790
      8  N59       -2.6720   -6.7480    7.5950 N.pl3   0  LIG0       -0.1464
      9  C37       -3.3180   -5.6160    8.0040 C.1     0  LIG0        0.1117
     10  N33       -4.3910   -5.2060    7.2990 N.2     0  LIG0       -0.2015
     11  C38       -5.0240   -4.0780    7.7680 C.3     0  LIG0        0.1653
     12  C42       -4.5500   -3.4010    8.9050 C.2     0  LIG0        0.0208
     13  C41       -3.4380   -3.9100    9.5660 C.2     0  LIG0        0.0916
     14  N35       -2.8260   -5.0210    9.1030 N.2     0  LIG0       -0.1806
     15  C53       -2.8630   -3.2910   10.7720 C.ar    0  LIG0        0.0374
     16  C46       -3.4090   -2.1560   11.3520 C.ar    0  LIG0        0.0047
     17  C43       -2.8330   -1.6150   12.4780 C.ar    0  LIG0        0.0207
     18  C39       -1.7090   -2.2070   13.0110 C.ar    0  LIG0        0.0989
     19  N34       -1.1670   -3.3020   12.4710 N.ar    0  LIG0       -0.2423
     20  C40       -1.7350   -3.8390   11.3640 C.ar    0  LIG0        0.1003
     21  N58       -2.4050   -8.0500    2.9050 N.am    0  LIG0       -0.1754
     22  C36       -1.3590   -7.2700    2.4920 C.2     0  LIG0        0.2690
     23  O32       -0.8350   -6.4750    3.2330 O.2     0  LIG0       -0.2680
     24  C52       -0.8820   -7.4180    1.0890 C.ar    0  LIG0        0.0554
     25  C44       -1.5010   -8.2310    0.1690 C.ar    0  LIG0        0.0043
     26  C50       -1.0130   -8.3480   -1.1280 C.ar    0  LIG0       -0.0028
     27  C57        0.1150   -7.6500   -1.5430 C.ar    0  LIG0       -0.0061
     28  C51        0.7580   -6.8230   -0.6220 C.ar    0  LIG0       -0.0028
     29  C45        0.2680   -6.7150    0.6760 C.ar    0  LIG0        0.0043
     30  C64        0.6460   -7.7640   -2.9320 C.3     0  LIG0        0.0992
     31  N61       -0.3680   -7.6090   -3.9480 N.3     0  LIG0       -0.2665
     32  C67       -0.9380   -6.2580   -3.9210 C.3     0  LIG0        0.0899
     33  C65       -2.0070   -6.1070   -4.9960 C.3     0  LIG0        0.0897
     34  N60       -1.4410   -6.4070   -6.3270 N.3     0  LIG0       -0.2691
     35  C66       -0.8660   -7.7470   -6.3540 C.3     0  LIG0        0.0897
     36  C68        0.2090   -7.8920   -5.2670 C.3     0  LIG0        0.0899
     37  C63       -2.4790   -6.2850   -7.3570 C.3     0  LIG0        0.0897
@<TRIPOS>BOND
     1    37    34    1
     2    35    34    1
     3    35    36    1
     4    34    33    1
     5    36    31    1
     6    33    32    1
     7    31    32    1
     8    31    30    1
     9    30    27    1
    10    27    26   ar
    11    27    28   ar
    12    26    25   ar
    13    28    29   ar
    14    25    24   ar
    15    29    24   ar
    16    24    22    1
    17    22    21   am
    18    22    23    2
    19    21     5    1
    20     5     4   ar
    21     5     6   ar
    22     4     3   ar
    23     6     7   ar
    24     3     2   ar
    25     7     2   ar
    26     7     8    1
    27     2     1    1
    28    10    11    1
    29    10     9    2
    30     8     9    1
    31    11    12    1
    32     9    14    2
    33    12    13    2
    34    14    13    1
    35    13    15    1
    36    15    16   ar
    37    15    20   ar
    38    16    17   ar
    39    20    19   ar
    40    19    18   ar
    41    17    18   ar
