@<TRIPOS>MOLECULE
/Users/xuhangdai/Desktop/Projects/OptimalTransport/extra_bio_ligands_boltz_af3/boltz_results_4csv_imatinib/4csv_imatinib_model_13_chainB.pdb
 37 41 0 0 0
SMALL
GASTEIGER

@<TRIPOS>ATOM
      1  C62        7.9450   -3.6790    9.6030 C.3     0  LIG0        0.0324
      2  C56        6.4940   -3.3230    9.3230 C.ar    0  LIG0       -0.0057
      3  C49        5.6460   -2.9910   10.3500 C.ar    0  LIG0       -0.0016
      4  C47        4.3200   -2.6690   10.0990 C.ar    0  LIG0        0.0164
      5  C54        3.8080   -2.6920    8.8080 C.ar    0  LIG0        0.0750
      6  C48        4.6480   -3.0270    7.7760 C.ar    0  LIG0        0.0336
      7  C55        5.9880   -3.3500    8.0040 C.ar    0  LIG0        0.0790
      8  N59        6.7980   -3.7190    6.9470 N.pl3   0  LIG0       -0.1464
      9  C37        7.6390   -2.8710    6.2850 C.1     0  LIG0        0.1117
     10  N33        7.6440   -1.5730    6.6450 N.2     0  LIG0       -0.2015
     11  C38        8.5240   -0.7630    5.9670 C.3     0  LIG0        0.1653
     12  C42        9.3470   -1.2800    4.9460 C.2     0  LIG0        0.0208
     13  C41        9.2710   -2.6360    4.6530 C.2     0  LIG0        0.0916
     14  N35        8.4070   -3.4260    5.3300 N.2     0  LIG0       -0.1806
     15  C53       10.0900   -3.2870    3.6170 C.ar    0  LIG0        0.0374
     16  C46       11.0060   -2.5840    2.8470 C.ar    0  LIG0        0.0047
     17  C43       11.7470   -3.2390    1.8890 C.ar    0  LIG0        0.0207
     18  C39       11.5610   -4.5900    1.7000 C.ar    0  LIG0        0.0989
     19  N34       10.6840   -5.2880    2.4280 N.ar    0  LIG0       -0.2423
     20  C40        9.9540   -4.6460    3.3740 C.ar    0  LIG0        0.1003
     21  N58        2.4330   -2.3850    8.6530 N.am    0  LIG0       -0.1754
     22  C36        1.6670   -2.5460    7.5240 C.2     0  LIG0        0.2690
     23  O32        2.1580   -2.8810    6.4780 O.2     0  LIG0       -0.2680
     24  C52        0.2020   -2.2850    7.6160 C.ar    0  LIG0        0.0554
     25  C44       -0.6240   -2.5450    6.5050 C.ar    0  LIG0        0.0043
     26  C50       -1.9950   -2.3160    6.5550 C.ar    0  LIG0       -0.0028
     27  C57       -2.5860   -1.8340    7.7160 C.ar    0  LIG0       -0.0061
     28  C51       -1.7730   -1.5830    8.8190 C.ar    0  LIG0       -0.0028
     29  C45       -0.3980   -1.8100    8.7620 C.ar    0  LIG0        0.0043
     30  C64       -4.0600   -1.5890    7.7710 C.3     0  LIG0        0.0992
     31  N61       -4.4090   -0.3270    8.3800 N.3     0  LIG0       -0.2665
     32  C67       -3.9270    0.7910    7.5700 C.3     0  LIG0        0.0899
     33  C65       -4.2740    2.1210    8.2270 C.3     0  LIG0        0.0897
     34  N60       -5.7280    2.2230    8.4380 N.3     0  LIG0       -0.2691
     35  C66       -6.2110    1.1080    9.2370 C.3     0  LIG0        0.0897
     36  C68       -5.8580   -0.2270    8.5660 C.3     0  LIG0        0.0899
     37  C63       -6.0570    3.4940    9.0950 C.3     0  LIG0        0.0897
@<TRIPOS>BOND
     1    18    17   ar
     2    18    19   ar
     3    17    16   ar
     4    19    20   ar
     5    16    15   ar
     6    20    15   ar
     7    15    13    1
     8    13    12    2
     9    13    14    1
    10    12    11    1
    11    14     9    2
    12    11    10    1
    13     9    10    2
    14     9     8    1
    15    23    22    2
    16    25    26   ar
    17    25    24   ar
    18    26    27   ar
    19     8     7    1
    20    22    24    1
    21    22    21   am
    22    32    33    1
    23    32    31    1
    24    24    29   ar
    25    27    30    1
    26    27    28   ar
    27    30    31    1
    28     6     7   ar
    29     6     5   ar
    30     7     2   ar
    31    33    34    1
    32    31    36    1
    33    34    37    1
    34    34    35    1
    35    36    35    1
    36    21     5    1
    37    29    28   ar
    38     5     4   ar
    39     2     1    1
    40     2     3   ar
    41     4     3   ar
