@<TRIPOS>MOLECULE
/Users/xuhangdai/Desktop/Projects/OptimalTransport/extra_bio_ligands_boltz_af3/boltz_results_4csv_imatinib/4csv_imatinib_model_28_chainB.pdb
 37 41 0 0 0
SMALL
GASTEIGER

@<TRIPOS>ATOM
      1  C62       -0.8600    8.2250    8.8770 C.3     0  LIG0        0.0324
      2  C56       -1.2180    6.7500    8.7830 C.ar    0  LIG0       -0.0057
      3  C49       -2.0370    6.1700    9.7220 C.ar    0  LIG0       -0.0016
      4  C47       -2.3680    4.8240    9.6440 C.ar    0  LIG0        0.0164
      5  C54       -1.8630    4.0200    8.6320 C.ar    0  LIG0        0.0750
      6  C48       -1.0400    4.5930    7.6860 C.ar    0  LIG0        0.0336
      7  C55       -0.7000    5.9490    7.7390 C.ar    0  LIG0        0.0790
      8  N59        0.1580    6.4930    6.7880 N.pl3   0  LIG0       -0.1464
      9  C37       -0.2500    7.1440    5.6520 C.1     0  LIG0        0.1117
     10  N33       -1.5720    7.2320    5.4200 N.2     0  LIG0       -0.2015
     11  C38       -1.9430    7.9140    4.2820 C.3     0  LIG0        0.1653
     12  C42       -0.9800    8.4640    3.4160 C.2     0  LIG0        0.0208
     13  C41        0.3640    8.3300    3.7400 C.2     0  LIG0        0.0916
     14  N35        0.7200    7.6640    4.8660 N.2     0  LIG0       -0.1806
     15  C53        1.4570    8.8800    2.9070 C.ar    0  LIG0        0.0374
     16  C46        1.2130    9.5790    1.7290 C.ar    0  LIG0        0.0047
     17  C43        2.2630   10.0700    0.9850 C.ar    0  LIG0        0.0207
     18  C39        3.5530    9.8540    1.4140 C.ar    0  LIG0        0.0989
     19  N34        3.8150    9.1890    2.5410 N.ar    0  LIG0       -0.2423
     20  C40        2.7810    8.7060    3.2800 C.ar    0  LIG0        0.1003
     21  N58       -2.2220    2.6490    8.6650 N.am    0  LIG0       -0.1754
     22  C36       -1.7170    1.6330    7.8910 C.2     0  LIG0        0.2690
     23  O32       -0.9650    1.8650    6.9810 O.2     0  LIG0       -0.2680
     24  C52       -2.1190    0.2240    8.1910 C.ar    0  LIG0        0.0554
     25  C44       -1.5050   -0.8410    7.5020 C.ar    0  LIG0        0.0043
     26  C50       -1.8470   -2.1680    7.7580 C.ar    0  LIG0       -0.0028
     27  C57       -2.8040   -2.4750    8.7200 C.ar    0  LIG0       -0.0061
     28  C51       -3.4100   -1.4250    9.4110 C.ar    0  LIG0       -0.0028
     29  C45       -3.0660   -0.0950    9.1460 C.ar    0  LIG0        0.0043
     30  C64       -3.1670   -3.9010    8.9980 C.3     0  LIG0        0.0992
     31  N61       -4.5900   -4.1490    8.9680 N.3     0  LIG0       -0.2665
     32  C67       -5.1370   -3.9380    7.6250 C.3     0  LIG0        0.0899
     33  C65       -6.6380   -4.1820    7.6060 C.3     0  LIG0        0.0897
     34  N60       -6.9470   -5.5470    8.0790 N.3     0  LIG0       -0.2691
     35  C66       -6.3920   -5.7720    9.4100 C.3     0  LIG0        0.0897
     36  C68       -4.8760   -5.5200    9.4140 C.3     0  LIG0        0.0899
     37  C63       -8.4010   -5.7540    8.1000 C.3     0  LIG0        0.0897
@<TRIPOS>BOND
     1    17    18   ar
     2    17    16   ar
     3    18    19   ar
     4    16    15   ar
     5    19    20   ar
     6    15    20   ar
     7    15    13    1
     8    12    13    2
     9    12    11    1
    10    13    14    1
    11    11    10    1
    12    14     9    2
    13    10     9    2
    14     9     8    1
    15     8     7    1
    16    23    22    2
    17    25    26   ar
    18    25    24   ar
    19    33    32    1
    20    33    34    1
    21    32    31    1
    22     6     7   ar
    23     6     5   ar
    24     7     2   ar
    25    26    27   ar
    26    22    24    1
    27    22    21   am
    28    34    37    1
    29    34    35    1
    30    24    29   ar
    31     5    21    1
    32     5     4   ar
    33    27    30    1
    34    27    28   ar
    35     2     1    1
    36     2     3   ar
    37    31    30    1
    38    31    36    1
    39    29    28   ar
    40    35    36    1
    41     4     3   ar
