@<TRIPOS>MOLECULE
/Users/xuhangdai/Desktop/Projects/OptimalTransport/extra_bio_ligands_boltz_af3/boltz_results_4csv_imatinib/4csv_imatinib_model_5_chainB.pdb
 37 41 0 0 0
SMALL
GASTEIGER

@<TRIPOS>ATOM
      1  C62        4.3050   -7.0830   12.1360 C.3     0  LIG0        0.0324
      2  C56        3.2030   -7.0250   11.0870 C.ar    0  LIG0       -0.0057
      3  C49        1.8880   -7.2080   11.4410 C.ar    0  LIG0       -0.0016
      4  C47        0.8810   -7.1590   10.4830 C.ar    0  LIG0        0.0164
      5  C54        1.1750   -6.9490    9.1400 C.ar    0  LIG0        0.0750
      6  C48        2.4900   -6.7680    8.7780 C.ar    0  LIG0        0.0336
      7  C55        3.5210   -6.8030    9.7260 C.ar    0  LIG0        0.0790
      8  N59        4.8390   -6.6540    9.3170 N.pl3   0  LIG0       -0.1464
      9  C37        5.5600   -5.4910    9.3870 C.1     0  LIG0        0.1117
     10  N33        4.9500   -4.3900    9.8760 N.2     0  LIG0       -0.2015
     11  C38        5.7240   -3.2520    9.9460 C.3     0  LIG0        0.1653
     12  C42        7.0660   -3.2560    9.5160 C.2     0  LIG0        0.0208
     13  C41        7.6110   -4.4440    9.0350 C.2     0  LIG0        0.0916
     14  N35        6.8440   -5.5610    8.9750 N.2     0  LIG0       -0.1806
     15  C53        9.0100   -4.5660    8.5690 C.ar    0  LIG0        0.0374
     16  C46        9.8820   -3.4810    8.5460 C.ar    0  LIG0        0.0047
     17  C43       11.1760   -3.6480    8.1000 C.ar    0  LIG0        0.0207
     18  C39       11.5900   -4.8930    7.6740 C.ar    0  LIG0        0.0989
     19  N34       10.7690   -5.9480    7.6890 N.ar    0  LIG0       -0.2423
     20  C40        9.4950   -5.7910    8.1310 C.ar    0  LIG0        0.1003
     21  N58        0.0840   -6.9590    8.2340 N.am    0  LIG0       -0.1754
     22  C36        0.1440   -6.9450    6.8570 C.2     0  LIG0        0.2690
     23  O32        1.1880   -6.8050    6.2720 O.2     0  LIG0       -0.2680
     24  C52       -1.1290   -7.0960    6.0890 C.ar    0  LIG0        0.0554
     25  C44       -1.0940   -7.2300    4.6860 C.ar    0  LIG0        0.0043
     26  C50       -2.2640   -7.3680    3.9390 C.ar    0  LIG0       -0.0028
     27  C57       -3.5070   -7.3850    4.5690 C.ar    0  LIG0       -0.0061
     28  C51       -3.5430   -7.2640    5.9630 C.ar    0  LIG0       -0.0028
     29  C45       -2.3650   -7.1230    6.7040 C.ar    0  LIG0        0.0043
     30  C64       -4.7710   -7.5260    3.7690 C.3     0  LIG0        0.0992
     31  N61       -5.7910   -6.5650    4.1460 N.3     0  LIG0       -0.2665
     32  C67       -5.3740   -5.2030    3.7940 C.3     0  LIG0        0.0899
     33  C65       -6.4240   -4.1860    4.2340 C.3     0  LIG0        0.0897
     34  N60       -7.7290   -4.4920    3.6110 N.3     0  LIG0       -0.2691
     35  C66       -8.1480   -5.8530    3.9340 C.3     0  LIG0        0.0897
     36  C68       -7.0750   -6.8690    3.4940 C.3     0  LIG0        0.0899
     37  C63       -8.7450   -3.5260    4.0670 C.3     0  LIG0        0.0897
@<TRIPOS>BOND
     1    36    35    1
     2    36    31    1
     3    34    35    1
     4    34    37    1
     5    34    33    1
     6    30    31    1
     7    30    27    1
     8    32    31    1
     9    32    33    1
    10    26    27   ar
    11    26    25   ar
    12    27    28   ar
    13    25    24   ar
    14    28    29   ar
    15    24    29   ar
    16    24    22    1
    17    23    22    2
    18    22    21   am
    19    18    19   ar
    20    18    17   ar
    21    19    20   ar
    22    17    16   ar
    23    20    15   ar
    24    21     5    1
    25    16    15   ar
    26    15    13    1
    27     6     5   ar
    28     6     7   ar
    29    14    13    1
    30    14     9    2
    31    13    12    2
    32     5     4   ar
    33     8     9    1
    34     8     7    1
    35     9    10    2
    36    12    11    1
    37     7     2   ar
    38    10    11    1
    39     4     3   ar
    40     2     3   ar
    41     2     1    1
