@<TRIPOS>MOLECULE
/Users/xuhangdai/Desktop/Projects/OptimalTransport/extra_bio_ligands_boltz_af3/boltz_results_4csv_imatinib/4csv_imatinib_model_41_chainB.pdb
 37 41 0 0 0
SMALL
GASTEIGER

@<TRIPOS>ATOM
      1  C62        4.4990    0.7050  -11.9870 C.3     0  LIG0        0.0324
      2  C56        3.3900    0.0330  -11.1860 C.ar    0  LIG0       -0.0057
      3  C49        2.8090   -1.1280  -11.6320 C.ar    0  LIG0       -0.0016
      4  C47        1.7900   -1.7390  -10.9050 C.ar    0  LIG0        0.0164
      5  C54        1.3170   -1.1880   -9.7220 C.ar    0  LIG0        0.0750
      6  C48        1.8920   -0.0190   -9.2680 C.ar    0  LIG0        0.0336
      7  C55        2.9250    0.6070   -9.9790 C.ar    0  LIG0        0.0790
      8  N59        3.4630    1.7980   -9.5140 N.pl3   0  LIG0       -0.1464
      9  C37        4.5650    1.8870   -8.7070 C.1     0  LIG0        0.1117
     10  N33        5.1300    0.7410   -8.2760 N.2     0  LIG0       -0.2015
     11  C38        6.2540    0.8820   -7.4910 C.3     0  LIG0        0.1653
     12  C42        6.7510    2.1540   -7.1530 C.2     0  LIG0        0.0208
     13  C41        6.1000    3.2780   -7.6500 C.2     0  LIG0        0.0916
     14  N35        5.0000    3.1320   -8.4300 N.2     0  LIG0       -0.1806
     15  C53        6.5390    4.6590   -7.3720 C.ar    0  LIG0        0.0374
     16  C46        7.6640    4.9450   -6.6070 C.ar    0  LIG0        0.0047
     17  C43        8.0300    6.2520   -6.3730 C.ar    0  LIG0        0.0207
     18  C39        7.2630    7.2690   -6.9030 C.ar    0  LIG0        0.0989
     19  N34        6.1790    7.0220   -7.6430 N.ar    0  LIG0       -0.2423
     20  C40        5.8150    5.7340   -7.8760 C.ar    0  LIG0        0.1003
     21  N58        0.2480   -1.8600   -9.0810 N.am    0  LIG0       -0.1754
     22  C36       -0.4810   -1.4320   -7.9960 C.2     0  LIG0        0.2690
     23  O32       -0.1740   -0.4370   -7.3850 O.2     0  LIG0       -0.2680
     24  C52       -1.6710   -2.2310   -7.5740 C.ar    0  LIG0        0.0554
     25  C44       -2.5210   -1.7390   -6.5650 C.ar    0  LIG0        0.0043
     26  C50       -3.6440   -2.4510   -6.1550 C.ar    0  LIG0       -0.0028
     27  C57       -3.9620   -3.6720   -6.7450 C.ar    0  LIG0       -0.0061
     28  C51       -3.1260   -4.1580   -7.7490 C.ar    0  LIG0       -0.0028
     29  C45       -1.9990   -3.4430   -8.1540 C.ar    0  LIG0        0.0043
     30  C64       -5.1770   -4.4290   -6.3080 C.3     0  LIG0        0.0992
     31  N61       -4.9080   -5.8130   -5.9940 N.3     0  LIG0       -0.2665
     32  C67       -4.0490   -5.9230   -4.8090 C.3     0  LIG0        0.0899
     33  C65       -3.7610   -7.3820   -4.4830 C.3     0  LIG0        0.0897
     34  N60       -5.0220   -8.1220   -4.2750 N.3     0  LIG0       -0.2691
     35  C66       -5.8860   -8.0100   -5.4520 C.3     0  LIG0        0.0897
     36  C68       -6.1700   -6.5320   -5.7740 C.3     0  LIG0        0.0899
     37  C63       -4.7380   -9.5380   -3.9950 C.3     0  LIG0        0.0897
@<TRIPOS>BOND
     1     1     2    1
     2     3     2   ar
     3     3     4   ar
     4     2     7   ar
     5     4     5   ar
     6     7     8    1
     7     7     6   ar
     8     5     6   ar
     9     5    21    1
    10     8     9    1
    11    21    22   am
    12     9    14    2
    13     9    10    2
    14    14    13    1
    15    10    11    1
    16    29    28   ar
    17    29    24   ar
    18    22    24    1
    19    22    23    2
    20    20    19   ar
    21    20    15   ar
    22    28    27   ar
    23    13    15    1
    24    13    12    2
    25    19    18   ar
    26    24    25   ar
    27    11    12    1
    28    15    16   ar
    29    18    17   ar
    30    27    30    1
    31    27    26   ar
    32    16    17   ar
    33    25    26   ar
    34    30    31    1
    35    31    36    1
    36    31    32    1
    37    36    35    1
    38    35    34    1
    39    32    33    1
    40    33    34    1
    41    34    37    1
