@<TRIPOS>MOLECULE
/Users/xuhangdai/Desktop/Projects/OptimalTransport/extra_bio_ligands_boltz_af3/boltz_results_4csv_imatinib/4csv_imatinib_model_35_chainB.pdb
 37 41 0 0 0
SMALL
GASTEIGER

@<TRIPOS>ATOM
      1  C62        1.8080   10.9200   -5.9960 C.3     0  LIG0        0.0324
      2  C56        2.3690    9.5120   -6.0990 C.ar    0  LIG0       -0.0057
      3  C49        3.6230    9.2930   -6.6100 C.ar    0  LIG0       -0.0016
      4  C47        4.1360    8.0070   -6.7040 C.ar    0  LIG0        0.0164
      5  C54        3.3890    6.9040   -6.3090 C.ar    0  LIG0        0.0750
      6  C48        2.1280    7.1160   -5.8000 C.ar    0  LIG0        0.0336
      7  C55        1.5980    8.4030   -5.6870 C.ar    0  LIG0        0.0790
      8  N59        0.3170    8.5820   -5.2000 N.pl3   0  LIG0       -0.1464
      9  C37        0.0230    8.8400   -3.8900 C.1     0  LIG0        0.1117
     10  N33        1.0360    8.8560   -3.0010 N.2     0  LIG0       -0.2015
     11  C38        0.6940    9.1450   -1.7000 C.3     0  LIG0        0.1653
     12  C42       -0.6430    9.3850   -1.3390 C.2     0  LIG0        0.0208
     13  C41       -1.6180    9.3540   -2.3290 C.2     0  LIG0        0.0916
     14  N35       -1.2720    9.0760   -3.6070 N.2     0  LIG0       -0.1806
     15  C53       -3.0440    9.6040   -2.0640 C.ar    0  LIG0        0.0374
     16  C46       -3.5230    9.8920   -0.7900 C.ar    0  LIG0        0.0047
     17  C43       -4.8680   10.1150   -0.5910 C.ar    0  LIG0        0.0207
     18  C39       -5.7290   10.0490   -1.6680 C.ar    0  LIG0        0.0989
     19  N34       -5.2920    9.7770   -2.8980 N.ar    0  LIG0       -0.2423
     20  C40       -3.9700    9.5560   -3.1000 C.ar    0  LIG0        0.1003
     21  N58        3.9770    5.6330   -6.4840 N.am    0  LIG0       -0.1754
     22  C36        3.3870    4.4030   -6.3270 C.2     0  LIG0        0.2690
     23  O32        2.2690    4.2890   -5.8870 O.2     0  LIG0       -0.2680
     24  C52        4.1710    3.2020   -6.7270 C.ar    0  LIG0        0.0554
     25  C44        3.5390    1.9530   -6.8180 C.ar    0  LIG0        0.0043
     26  C50        4.2400    0.8160   -7.2050 C.ar    0  LIG0       -0.0028
     27  C57        5.5940    0.8940   -7.5200 C.ar    0  LIG0       -0.0061
     28  C51        6.2230    2.1320   -7.4330 C.ar    0  LIG0       -0.0028
     29  C45        5.5130    3.2690   -7.0430 C.ar    0  LIG0        0.0043
     30  C64        6.3450   -0.3280   -7.9530 C.3     0  LIG0        0.0992
     31  N61        7.5500   -0.5640   -7.1840 N.3     0  LIG0       -0.2665
     32  C67        7.2230   -0.9710   -5.8190 C.3     0  LIG0        0.0899
     33  C65        8.4890   -1.2020   -5.0100 C.3     0  LIG0        0.0897
     34  N60        9.3430   -2.2210   -5.6590 N.3     0  LIG0       -0.2691
     35  C66        9.6650   -1.8230   -7.0260 C.3     0  LIG0        0.0897
     36  C68        8.3780   -1.5900   -7.8340 C.3     0  LIG0        0.0899
     37  C63       10.5780   -2.4070   -4.8930 C.3     0  LIG0        0.0897
@<TRIPOS>BOND
     1    30    27    1
     2    30    31    1
     3    36    31    1
     4    36    35    1
     5    27    28   ar
     6    27    26   ar
     7    28    29   ar
     8    26    25   ar
     9    31    32    1
    10    29    24   ar
    11    35    34    1
    12    25    24   ar
    13    24    22    1
    14     4     3   ar
    15     4     5   ar
    16     3     2   ar
    17    21    22   am
    18    21     5    1
    19    22    23    2
    20     5     6   ar
    21     2     1    1
    22     2     7   ar
    23    32    33    1
    24     6     7   ar
    25     7     8    1
    26    34    33    1
    27    34    37    1
    28     8     9    1
    29     9    14    2
    30     9    10    2
    31    14    13    1
    32    20    19   ar
    33    20    15   ar
    34    10    11    1
    35    19    18   ar
    36    13    15    1
    37    13    12    2
    38    15    16   ar
    39    11    12    1
    40    18    17   ar
    41    16    17   ar
