@<TRIPOS>MOLECULE
/Users/xuhangdai/Desktop/Projects/OptimalTransport/extra_bio_ligands_boltz_af3/boltz_results_4csv_imatinib/4csv_imatinib_model_20_chainB.pdb
 37 41 0 0 0
SMALL
GASTEIGER

@<TRIPOS>ATOM
      1  C62        9.1670   -3.8940   -6.9050 C.3     0  LIG0        0.0324
      2  C56        7.9640   -2.9620   -6.9250 C.ar    0  LIG0       -0.0057
      3  C49        7.3580   -2.6330   -8.1100 C.ar    0  LIG0       -0.0016
      4  C47        6.2610   -1.7820   -8.1330 C.ar    0  LIG0        0.0164
      5  C54        5.7650   -1.2230   -6.9640 C.ar    0  LIG0        0.0750
      6  C48        6.3670   -1.5440   -5.7710 C.ar    0  LIG0        0.0336
      7  C55        7.4680   -2.4040   -5.7240 C.ar    0  LIG0        0.0790
      8  N59        8.0810   -2.6780   -4.5120 N.pl3   0  LIG0       -0.1464
      9  C37        7.7910   -3.7630   -3.7310 C.1     0  LIG0        0.1117
     10  N33        6.8200   -4.5990   -4.1440 N.2     0  LIG0       -0.2015
     11  C38        6.5800   -5.6890   -3.3370 C.3     0  LIG0        0.1653
     12  C42        7.3060   -5.8870   -2.1470 C.2     0  LIG0        0.0208
     13  C41        8.2970   -4.9710   -1.8100 C.2     0  LIG0        0.0916
     14  N35        8.5310   -3.9040   -2.6130 N.2     0  LIG0       -0.1806
     15  C53        9.1260   -5.0840   -0.5940 C.ar    0  LIG0        0.0374
     16  C46        8.9790   -6.1300    0.3100 C.ar    0  LIG0        0.0047
     17  C43        9.7740   -6.1890    1.4320 C.ar    0  LIG0        0.0207
     18  C39       10.7060   -5.1930    1.6520 C.ar    0  LIG0        0.0989
     19  N34       10.8660   -4.1800    0.7970 N.ar    0  LIG0       -0.2423
     20  C40       10.0860   -4.1200   -0.3130 C.ar    0  LIG0        0.1003
     21  N58        4.6800   -0.3310   -7.0990 N.am    0  LIG0       -0.1754
     22  C36        4.1500    0.4850   -6.1350 C.2     0  LIG0        0.2690
     23  O32        4.5030    0.4180   -4.9830 O.2     0  LIG0       -0.2680
     24  C52        3.1070    1.4670   -6.5480 C.ar    0  LIG0        0.0554
     25  C44        2.6450    2.4290   -5.6330 C.ar    0  LIG0        0.0043
     26  C50        1.6790    3.3630   -5.9930 C.ar    0  LIG0       -0.0028
     27  C57        1.1540    3.3710   -7.2810 C.ar    0  LIG0       -0.0061
     28  C51        1.6160    2.4220   -8.1930 C.ar    0  LIG0       -0.0028
     29  C45        2.5810    1.4870   -7.8240 C.ar    0  LIG0        0.0043
     30  C64        0.1180    4.3790   -7.6710 C.3     0  LIG0        0.0992
     31  N61       -1.0180    3.7900   -8.3440 N.3     0  LIG0       -0.2665
     32  C67       -1.7810    2.9390   -7.4240 C.3     0  LIG0        0.0899
     33  C65       -2.9670    2.3080   -8.1400 C.3     0  LIG0        0.0897
     34  N60       -3.8400    3.3540   -8.7020 N.3     0  LIG0       -0.2691
     35  C66       -3.0870    4.2130   -9.6110 C.3     0  LIG0        0.0897
     36  C68       -1.8880    4.8420   -8.8830 C.3     0  LIG0        0.0899
     37  C63       -4.9680    2.7440   -9.4160 C.3     0  LIG0        0.0897
@<TRIPOS>BOND
     1    35    36    1
     2    35    34    1
     3    37    34    1
     4    36    31    1
     5    34    33    1
     6    31    30    1
     7    31    32    1
     8    28    29   ar
     9    28    27   ar
    10    33    32    1
    11     4     3   ar
    12     4     5   ar
    13     3     2   ar
    14    29    24   ar
    15    30    27    1
    16    27    26   ar
    17    21     5    1
    18    21    22   am
    19     5     6   ar
    20     2     1    1
    21     2     7   ar
    22    24    22    1
    23    24    25   ar
    24    22    23    2
    25    26    25   ar
    26     6     7   ar
    27     7     8    1
    28     8     9    1
    29    10     9    2
    30    10    11    1
    31     9    14    2
    32    11    12    1
    33    14    13    1
    34    12    13    2
    35    13    15    1
    36    15    20   ar
    37    15    16   ar
    38    20    19   ar
    39    16    17   ar
    40    19    18   ar
    41    17    18   ar
