@<TRIPOS>MOLECULE
/Users/xuhangdai/Desktop/Projects/OptimalTransport/extra_bio_ligands_boltz_af3/boltz_results_4csv_imatinib/4csv_imatinib_model_25_chainB.pdb
 37 41 0 0 0
SMALL
GASTEIGER

@<TRIPOS>ATOM
      1  C62      -10.1010   -6.6010   -3.3070 C.3     0  LIG0        0.0324
      2  C56       -9.6930   -5.2270   -2.7940 C.ar    0  LIG0       -0.0057
      3  C49      -10.5310   -4.5150   -1.9720 C.ar    0  LIG0       -0.0016
      4  C47      -10.1660   -3.2610   -1.5050 C.ar    0  LIG0        0.0164
      5  C54       -8.9560   -2.6810   -1.8680 C.ar    0  LIG0        0.0750
      6  C48       -8.1120   -3.3860   -2.6970 C.ar    0  LIG0        0.0336
      7  C55       -8.4530   -4.6530   -3.1740 C.ar    0  LIG0        0.0790
      8  N59       -7.5940   -5.3220   -4.0360 N.pl3   0  LIG0       -0.1464
      9  C37       -6.6620   -6.2510   -3.6470 C.1     0  LIG0        0.1117
     10  N33       -6.5330   -6.5080   -2.3290 N.2     0  LIG0       -0.2015
     11  C38       -5.6030   -7.4670   -1.9880 C.3     0  LIG0        0.1653
     12  C42       -4.8310   -8.1160   -2.9750 C.2     0  LIG0        0.0208
     13  C41       -5.0420   -7.7890   -4.3120 C.2     0  LIG0        0.0916
     14  N35       -5.9650   -6.8490   -4.6380 N.2     0  LIG0       -0.1806
     15  C53       -4.3020   -8.4160   -5.4290 C.ar    0  LIG0        0.0374
     16  C46       -3.3100   -9.3710   -5.2240 C.ar    0  LIG0        0.0047
     17  C43       -2.6460   -9.9230   -6.3010 C.ar    0  LIG0        0.0207
     18  C39       -2.9730   -9.5130   -7.5800 C.ar    0  LIG0        0.0989
     19  N34       -3.9220   -8.6010   -7.8020 N.ar    0  LIG0       -0.2423
     20  C40       -4.5820   -8.0530   -6.7430 C.ar    0  LIG0        0.1003
     21  N58       -8.6930   -1.3860   -1.3660 N.am    0  LIG0       -0.1754
     22  C36       -7.6810   -0.5360   -1.7230 C.2     0  LIG0        0.2690
     23  O32       -6.7980   -0.8670   -2.4830 O.2     0  LIG0       -0.2680
     24  C52       -7.7070    0.8320   -1.1260 C.ar    0  LIG0        0.0554
     25  C44       -8.5590    1.1750   -0.0970 C.ar    0  LIG0        0.0043
     26  C50       -8.5660    2.4650    0.4330 C.ar    0  LIG0       -0.0028
     27  C57       -7.7200    3.4520   -0.0530 C.ar    0  LIG0       -0.0061
     28  C51       -6.8490    3.1240   -1.0980 C.ar    0  LIG0       -0.0028
     29  C45       -6.8520    1.8320   -1.6260 C.ar    0  LIG0        0.0043
     30  C64       -7.7270    4.8380    0.5090 C.3     0  LIG0        0.0992
     31  N61       -7.6010    4.8770    1.9530 N.3     0  LIG0       -0.2665
     32  C67       -6.2730    4.4110    2.3700 C.3     0  LIG0        0.0899
     33  C65       -6.1380    4.4660    3.8870 C.3     0  LIG0        0.0897
     34  N60       -6.3700    5.8420    4.3700 N.3     0  LIG0       -0.2691
     35  C66       -7.6920    6.3090    3.9630 C.3     0  LIG0        0.0897
     36  C68       -7.8290    6.2480    2.4340 C.3     0  LIG0        0.0899
     37  C63       -6.2530    5.8930    5.8310 C.3     0  LIG0        0.0897
@<TRIPOS>BOND
     1    19    18   ar
     2    19    20   ar
     3    18    17   ar
     4    20    15   ar
     5    17    16   ar
     6    15    16   ar
     7    15    13    1
     8    14    13    1
     9    14     9    2
    10    13    12    2
    11     8     9    1
    12     8     7    1
    13     9    10    2
    14     1     2    1
    15     7     2   ar
    16     7     6   ar
    17    12    11    1
    18     2     3   ar
    19     6     5   ar
    20    23    22    2
    21    10    11    1
    22     3     4   ar
    23     5     4   ar
    24     5    21    1
    25    22    21   am
    26    22    24    1
    27    29    24   ar
    28    29    28   ar
    29    24    25   ar
    30    28    27   ar
    31    25    26   ar
    32    27    26   ar
    33    27    30    1
    34    30    31    1
    35    31    32    1
    36    31    36    1
    37    32    33    1
    38    36    35    1
    39    33    34    1
    40    35    34    1
    41    34    37    1
