@<TRIPOS>MOLECULE
/Users/xuhangdai/Desktop/Projects/OptimalTransport/extra_bio_ligands_boltz_af3/boltz_results_4csv_imatinib/4csv_imatinib_model_6_chainB.pdb
 37 41 0 0 0
SMALL
GASTEIGER

@<TRIPOS>ATOM
      1  C62       -1.3510   -4.0420   12.4990 C.3     0  LIG0        0.0324
      2  C56       -0.1870   -3.8520   11.5320 C.ar    0  LIG0       -0.0057
      3  C49        1.0060   -4.4970   11.7380 C.ar    0  LIG0       -0.0016
      4  C47        2.0690   -4.3230   10.8580 C.ar    0  LIG0        0.0164
      5  C54        1.9640   -3.4700    9.7640 C.ar    0  LIG0        0.0750
      6  C48        0.7730   -2.8190    9.5540 C.ar    0  LIG0        0.0336
      7  C55       -0.3130   -2.9890   10.4210 C.ar    0  LIG0        0.0790
      8  N59       -1.4870   -2.2930   10.1980 N.pl3   0  LIG0       -0.1464
      9  C37       -2.5590   -2.7990    9.5080 C.1     0  LIG0        0.1117
     10  N33       -2.4500   -4.0410    8.9940 N.2     0  LIG0       -0.2015
     11  C38       -3.5530   -4.5140    8.3280 C.3     0  LIG0        0.1653
     12  C42       -4.7100   -3.7260    8.1870 C.2     0  LIG0        0.0208
     13  C41       -4.7320   -2.4600    8.7630 C.2     0  LIG0        0.0916
     14  N35       -3.6440   -2.0030    9.4220 N.2     0  LIG0       -0.1806
     15  C53       -5.8960   -1.5580    8.6890 C.ar    0  LIG0        0.0374
     16  C46       -7.0570   -1.9090    8.0040 C.ar    0  LIG0        0.0047
     17  C43       -8.1200   -1.0330    7.9600 C.ar    0  LIG0        0.0207
     18  C39       -8.0150    0.1890    8.5930 C.ar    0  LIG0        0.0989
     19  N34       -6.9130    0.5430    9.2570 N.ar    0  LIG0       -0.2423
     20  C40       -5.8650   -0.3210    9.3070 C.ar    0  LIG0        0.1003
     21  N58        3.1140   -3.3170    8.9550 N.am    0  LIG0       -0.1754
     22  C36        3.3030   -2.4260    7.9250 C.2     0  LIG0        0.2690
     23  O32        2.4050   -1.7400    7.5050 O.2     0  LIG0       -0.2680
     24  C52        4.6630   -2.3230    7.3300 C.ar    0  LIG0        0.0554
     25  C44        4.9590   -1.2770    6.4410 C.ar    0  LIG0        0.0043
     26  C50        6.2210   -1.1410    5.8810 C.ar    0  LIG0       -0.0028
     27  C57        7.2290   -2.0410    6.1990 C.ar    0  LIG0       -0.0061
     28  C51        6.9410   -3.0790    7.0870 C.ar    0  LIG0       -0.0028
     29  C45        5.6710   -3.2110    7.6430 C.ar    0  LIG0        0.0043
     30  C64        8.5920   -1.8860    5.6090 C.3     0  LIG0        0.0992
     31  N61        9.0520   -3.0630    4.9110 N.3     0  LIG0       -0.2665
     32  C67        8.2420   -3.3140    3.7180 C.3     0  LIG0        0.0899
     33  C65        8.7320   -4.5540    2.9840 C.3     0  LIG0        0.0897
     34  N60       10.1540   -4.4070    2.6180 N.3     0  LIG0       -0.2691
     35  C66       10.9670   -4.1470    3.8010 C.3     0  LIG0        0.0897
     36  C68       10.4620   -2.9000    4.5380 C.3     0  LIG0        0.0899
     37  C63       10.6280   -5.6250    1.9470 C.3     0  LIG0        0.0897
@<TRIPOS>BOND
     1    37    34    1
     2    34    33    1
     3    34    35    1
     4    33    32    1
     5    32    31    1
     6    35    36    1
     7    36    31    1
     8    31    30    1
     9    30    27    1
    10    26    27   ar
    11    26    25   ar
    12    27    28   ar
    13    25    24   ar
    14    28    29   ar
    15    24    29   ar
    16    24    22    1
    17    23    22    2
    18    22    21   am
    19    17    16   ar
    20    17    18   ar
    21    16    15   ar
    22    12    11    1
    23    12    13    2
    24    11    10    1
    25    18    19   ar
    26    15    13    1
    27    15    20   ar
    28    13    14    1
    29    21     5    1
    30    10     9    2
    31    19    20   ar
    32    14     9    2
    33     9     8    1
    34     6     5   ar
    35     6     7   ar
    36     5     4   ar
    37     8     7    1
    38     7     2   ar
    39     4     3   ar
    40     2     3   ar
    41     2     1    1
