@<TRIPOS>MOLECULE
/Users/xuhangdai/Desktop/Projects/OptimalTransport/extra_bio_ligands_boltz_af3/boltz_results_4csv_imatinib/4csv_imatinib_model_48_chainB.pdb
 37 41 0 0 0
SMALL
GASTEIGER

@<TRIPOS>ATOM
      1  C62       -6.9470   -2.3930    9.1730 C.3     0  LIG0        0.0324
      2  C56       -6.9950   -1.6280    7.8590 C.ar    0  LIG0       -0.0057
      3  C49       -7.9340   -0.6540    7.6500 C.ar    0  LIG0       -0.0016
      4  C47       -7.9790    0.0420    6.4500 C.ar    0  LIG0        0.0164
      5  C54       -7.0920   -0.2380    5.4200 C.ar    0  LIG0        0.0750
      6  C48       -6.1500   -1.2170    5.6230 C.ar    0  LIG0        0.0336
      7  C55       -6.0840   -1.9260    6.8240 C.ar    0  LIG0        0.0790
      8  N59       -5.1470   -2.9290    6.9840 N.pl3   0  LIG0       -0.1464
      9  C37       -3.9240   -2.7470    7.5570 C.1     0  LIG0        0.1117
     10  N33       -3.5810   -1.5000    7.9280 N.2     0  LIG0       -0.2015
     11  C38       -2.3510   -1.3650    8.5240 C.3     0  LIG0        0.1653
     12  C42       -1.5110   -2.4780    8.7060 C.2     0  LIG0        0.0208
     13  C41       -1.9600   -3.7270    8.2970 C.2     0  LIG0        0.0916
     14  N35       -3.1750   -3.8530    7.7180 N.2     0  LIG0       -0.1806
     15  C53       -1.1700   -4.9580    8.4540 C.ar    0  LIG0        0.0374
     16  C46        0.0890   -4.9560    9.0340 C.ar    0  LIG0        0.0047
     17  C43        0.7930   -6.1310    9.1590 C.ar    0  LIG0        0.0207
     18  C39        0.2350   -7.3000    8.6980 C.ar    0  LIG0        0.0989
     19  N34       -0.9770   -7.3270    8.1380 N.ar    0  LIG0       -0.2423
     20  C40       -1.6740   -6.1730    8.0150 C.ar    0  LIG0        0.1003
     21  N58       -7.2500    0.4980    4.2250 N.am    0  LIG0       -0.1754
     22  C36       -6.6020    0.3120    3.0340 C.2     0  LIG0        0.2690
     23  O32       -5.6920   -0.4740    2.9230 O.2     0  LIG0       -0.2680
     24  C52       -7.0570    1.1150    1.8640 C.ar    0  LIG0        0.0554
     25  C44       -7.9670    2.1400    1.9750 C.ar    0  LIG0        0.0043
     26  C50       -8.3830    2.8560    0.8540 C.ar    0  LIG0       -0.0028
     27  C57       -7.8930    2.5600   -0.4110 C.ar    0  LIG0       -0.0061
     28  C51       -6.9690    1.5230   -0.5400 C.ar    0  LIG0       -0.0028
     29  C45       -6.5640    0.8110    0.5830 C.ar    0  LIG0        0.0043
     30  C64       -8.3410    3.3200   -1.6180 C.3     0  LIG0        0.0992
     31  N61       -8.1580    4.7480   -1.4960 N.3     0  LIG0       -0.2665
     32  C67       -6.7330    5.0840   -1.4360 C.3     0  LIG0        0.0899
     33  C65       -6.5480    6.5870   -1.2840 C.3     0  LIG0        0.0897
     34  N60       -7.1920    7.2960   -2.4060 N.3     0  LIG0       -0.2691
     35  C66       -8.6100    6.9520   -2.4890 C.3     0  LIG0        0.0897
     36  C68       -8.7830    5.4350   -2.6320 C.3     0  LIG0        0.0899
     37  C63       -7.0420    8.7430   -2.2340 C.3     0  LIG0        0.0897
@<TRIPOS>BOND
     1    36    35    1
     2    36    31    1
     3    35    34    1
     4    34    37    1
     5    34    33    1
     6    30    31    1
     7    30    27    1
     8    31    32    1
     9    32    33    1
    10    28    27   ar
    11    28    29   ar
    12    27    26   ar
    13    29    24   ar
    14    26    25   ar
    15    24    25   ar
    16    24    22    1
    17    23    22    2
    18    22    21   am
    19    21     5    1
    20     5     6   ar
    21     5     4   ar
    22     6     7   ar
    23     4     3   ar
    24     7     8    1
    25     7     2   ar
    26     8     9    1
    27     9    14    2
    28     9    10    2
    29     3     2   ar
    30    14    13    1
    31     2     1    1
    32    10    11    1
    33    20    19   ar
    34    20    15   ar
    35    19    18   ar
    36    13    15    1
    37    13    12    2
    38    15    16   ar
    39    11    12    1
    40    18    17   ar
    41    16    17   ar
