@<TRIPOS>MOLECULE
/Users/xuhangdai/Desktop/Projects/OptimalTransport/extra_bio_ligands_boltz_af3/boltz_results_4csv_imatinib/4csv_imatinib_model_15_chainB.pdb
 37 41 0 0 0
SMALL
GASTEIGER

@<TRIPOS>ATOM
      1  C62       11.5750    0.0110   -3.2650 C.3     0  LIG0        0.0324
      2  C56       10.5730   -0.9950   -2.7180 C.ar    0  LIG0       -0.0057
      3  C49       11.0000   -2.1380   -2.0860 C.ar    0  LIG0       -0.0016
      4  C47       10.0840   -3.0570   -1.5900 C.ar    0  LIG0        0.0164
      5  C54        8.7180   -2.8630   -1.7370 C.ar    0  LIG0        0.0750
      6  C48        8.2830   -1.7190   -2.3650 C.ar    0  LIG0        0.0336
      7  C55        9.1850   -0.7760   -2.8680 C.ar    0  LIG0        0.0790
      8  N59        8.7130    0.3450   -3.5300 N.pl3   0  LIG0       -0.1464
      9  C37        8.5020    1.5630   -2.9390 C.1     0  LIG0        0.1117
     10  N33        8.7530    1.6730   -1.6180 N.2     0  LIG0       -0.2015
     11  C38        8.5480    2.9180   -1.0690 C.3     0  LIG0        0.1653
     12  C42        8.0870    3.9910   -1.8550 C.2     0  LIG0        0.0208
     13  C41        7.8660    3.7810   -3.2120 C.2     0  LIG0        0.0916
     14  N35        8.0770    2.5570   -3.7450 N.2     0  LIG0       -0.1806
     15  C53        7.3960    4.8410   -4.1260 C.ar    0  LIG0        0.0374
     16  C46        7.1130    6.1300   -3.6830 C.ar    0  LIG0        0.0047
     17  C43        6.6710    7.0850   -4.5730 C.ar    0  LIG0        0.0207
     18  C39        6.5030    6.7450   -5.9020 C.ar    0  LIG0        0.0989
     19  N34        6.7690    5.5150   -6.3470 N.ar    0  LIG0       -0.2423
     20  C40        7.2060    4.5730   -5.4760 C.ar    0  LIG0        0.1003
     21  N58        7.8690   -3.8810   -1.2460 N.am    0  LIG0       -0.1754
     22  C36        6.5140   -3.9920   -1.4220 C.2     0  LIG0        0.2690
     23  O32        5.8740   -3.1110   -1.9370 O.2     0  LIG0       -0.2680
     24  C52        5.8380   -5.2380   -0.9560 C.ar    0  LIG0        0.0554
     25  C44        6.4940   -6.2360   -0.2700 C.ar    0  LIG0        0.0043
     26  C50        5.8240   -7.3900    0.1330 C.ar    0  LIG0       -0.0028
     27  C57        4.4750   -7.5770   -0.1440 C.ar    0  LIG0       -0.0061
     28  C51        3.7930   -6.5770   -0.8420 C.ar    0  LIG0       -0.0028
     29  C45        4.4700   -5.4300   -1.2450 C.ar    0  LIG0        0.0043
     30  C64        3.7470   -8.8140    0.2830 C.3     0  LIG0        0.0992
     31  N61        3.9610   -9.1530    1.6720 N.3     0  LIG0       -0.2665
     32  C67        3.3590   -8.1470    2.5530 C.3     0  LIG0        0.0899
     33  C65        3.6140   -8.4980    4.0120 C.3     0  LIG0        0.0897
     34  N60        3.0770   -9.8400    4.3250 N.3     0  LIG0       -0.2691
     35  C66        3.6440  -10.8460    3.4300 C.3     0  LIG0        0.0897
     36  C68        3.3890  -10.4770    1.9630 C.3     0  LIG0        0.0899
     37  C63        3.3680  -10.1860    5.7180 C.3     0  LIG0        0.0897
@<TRIPOS>BOND
     1    19    18   ar
     2    19    20   ar
     3    18    17   ar
     4    20    15   ar
     5    17    16   ar
     6    15    16   ar
     7    15    13    1
     8    14    13    1
     9    14     9    2
    10     8     9    1
    11     8     7    1
    12     1     2    1
    13    13    12    2
    14     9    10    2
    15     7     2   ar
    16     7     6   ar
    17     2     3   ar
    18     6     5   ar
    19     3     4   ar
    20    23    22    2
    21    12    11    1
    22     5     4   ar
    23     5    21    1
    24    10    11    1
    25    22    21   am
    26    22    24    1
    27    29    24   ar
    28    29    28   ar
    29    24    25   ar
    30    28    27   ar
    31    25    26   ar
    32    27    26   ar
    33    27    30    1
    34    30    31    1
    35    31    36    1
    36    31    32    1
    37    36    35    1
    38    32    33    1
    39    35    34    1
    40    33    34    1
    41    34    37    1
