@<TRIPOS>MOLECULE
/Users/xuhangdai/Desktop/Projects/OptimalTransport/extra_bio_ligands_boltz_af3/boltz_results_4csv_imatinib/4csv_imatinib_model_39_chainB.pdb
 37 41 0 0 0
SMALL
GASTEIGER

@<TRIPOS>ATOM
      1  C62      -11.5090    2.7970   -6.0680 C.3     0  LIG0        0.0324
      2  C56      -11.0410    2.8230   -4.6230 C.ar    0  LIG0       -0.0057
      3  C49      -11.9460    2.7340   -3.5970 C.ar    0  LIG0       -0.0016
      4  C47      -11.5210    2.7600   -2.2770 C.ar    0  LIG0        0.0164
      5  C54      -10.1740    2.8930   -1.9600 C.ar    0  LIG0        0.0750
      6  C48       -9.2630    2.9860   -2.9800 C.ar    0  LIG0        0.0336
      7  C55       -9.6670    2.9600   -4.3130 C.ar    0  LIG0        0.0790
      8  N59       -8.7250    3.1010   -5.3170 N.pl3   0  LIG0       -0.1464
      9  C37       -8.0680    2.0670   -5.9180 C.1     0  LIG0        0.1117
     10  N33       -8.3270    0.8150   -5.4930 N.2     0  LIG0       -0.2015
     11  C38       -7.6570   -0.1930   -6.1480 C.3     0  LIG0        0.1653
     12  C42       -6.7460    0.0950   -7.1850 C.2     0  LIG0        0.0208
     13  C41       -6.5520    1.4220   -7.5530 C.2     0  LIG0        0.0916
     14  N35       -7.2220    2.4070   -6.9080 N.2     0  LIG0       -0.1806
     15  C53       -5.6310    1.8380   -8.6290 C.ar    0  LIG0        0.0374
     16  C46       -4.8920    0.9250   -9.3690 C.ar    0  LIG0        0.0047
     17  C43       -4.0430    1.3630  -10.3620 C.ar    0  LIG0        0.0207
     18  C39       -3.9320    2.7190  -10.6050 C.ar    0  LIG0        0.0989
     19  N34       -4.6320    3.6170   -9.9090 N.ar    0  LIG0       -0.2423
     20  C40       -5.4720    3.1870   -8.9290 C.ar    0  LIG0        0.1003
     21  N58       -9.8420    2.9490   -0.5920 N.am    0  LIG0       -0.1754
     22  C36       -8.6220    3.2550   -0.0510 C.2     0  LIG0        0.2690
     23  O32       -7.6370    3.3990   -0.7310 O.2     0  LIG0       -0.2680
     24  C52       -8.5450    3.4000    1.4240 C.ar    0  LIG0        0.0554
     25  C44       -7.3410    3.7990    2.0250 C.ar    0  LIG0        0.0043
     26  C50       -7.2420    3.9510    3.3970 C.ar    0  LIG0       -0.0028
     27  C57       -8.3440    3.7180    4.2090 C.ar    0  LIG0       -0.0061
     28  C51       -9.5410    3.3300    3.6160 C.ar    0  LIG0       -0.0028
     29  C45       -9.6350    3.1760    2.2370 C.ar    0  LIG0        0.0043
     30  C64       -8.2430    3.8810    5.6870 C.3     0  LIG0        0.0992
     31  N61       -8.6680    2.6960    6.3930 N.3     0  LIG0       -0.2665
     32  C67       -7.7540    1.5820    6.1110 C.3     0  LIG0        0.0899
     33  C65       -8.2030    0.3270    6.8380 C.3     0  LIG0        0.0897
     34  N60       -8.2770    0.5780    8.2910 N.3     0  LIG0       -0.2691
     35  C66       -9.1820    1.6890    8.5740 C.3     0  LIG0        0.0897
     36  C68       -8.7230    2.9530    7.8330 C.3     0  LIG0        0.0899
     37  C63       -8.7330   -0.6290    8.9840 C.3     0  LIG0        0.0897
@<TRIPOS>BOND
     1    18    17   ar
     2    18    19   ar
     3    17    16   ar
     4    19    20   ar
     5    16    15   ar
     6    20    15   ar
     7    15    13    1
     8    13    12    2
     9    13    14    1
    10    12    11    1
    11    14     9    2
    12    11    10    1
    13     1     2    1
    14     9    10    2
    15     9     8    1
    16     8     7    1
    17     2     7   ar
    18     2     3   ar
    19     7     6   ar
    20     3     4   ar
    21     6     5   ar
    22     4     5   ar
    23     5    21    1
    24    23    22    2
    25    21    22   am
    26    22    24    1
    27    24    25   ar
    28    24    29   ar
    29    25    26   ar
    30    29    28   ar
    31    26    27   ar
    32    28    27   ar
    33    27    30    1
    34    30    31    1
    35    32    31    1
    36    32    33    1
    37    31    36    1
    38    33    34    1
    39    36    35    1
    40    34    35    1
    41    34    37    1
