@<TRIPOS>MOLECULE
/Users/xuhangdai/Desktop/Projects/OptimalTransport/extra_bio_ligands_boltz_af3/boltz_results_4csv_imatinib/4csv_imatinib_model_38_chainB.pdb
 37 41 0 0 0
SMALL
GASTEIGER

@<TRIPOS>ATOM
      1  C62       11.5300   -0.5830    3.8200 C.3     0  LIG0        0.0324
      2  C56       10.2640   -0.0860    4.5000 C.ar    0  LIG0       -0.0057
      3  C49       10.3180    0.5160    5.7320 C.ar    0  LIG0       -0.0016
      4  C47        9.1630    0.9690    6.3580 C.ar    0  LIG0        0.0164
      5  C54        7.9170    0.8010    5.7720 C.ar    0  LIG0        0.0750
      6  C48        7.8530    0.1990    4.5340 C.ar    0  LIG0        0.0336
      7  C55        9.0060   -0.2570    3.8820 C.ar    0  LIG0        0.0790
      8  N59        8.9100   -0.8930    2.6530 N.pl3   0  LIG0       -0.1464
      9  C37        9.0230   -0.2520    1.4510 C.1     0  LIG0        0.1117
     10  N33        9.1790    1.0850    1.4670 N.2     0  LIG0       -0.2015
     11  C38        9.3030    1.6890    0.2380 C.3     0  LIG0        0.1653
     12  C42        9.2510    0.9400   -0.9510 C.2     0  LIG0        0.0208
     13  C41        9.1000   -0.4380   -0.8670 C.2     0  LIG0        0.0916
     14  N35        8.9850   -1.0280    0.3470 N.2     0  LIG0       -0.1806
     15  C53        9.0450   -1.3190   -2.0500 C.ar    0  LIG0        0.0374
     16  C46        9.0950   -0.8180   -3.3460 C.ar    0  LIG0        0.0047
     17  C43        9.0320   -1.6760   -4.4190 C.ar    0  LIG0        0.0207
     18  C39        8.9110   -3.0310   -4.1920 C.ar    0  LIG0        0.0989
     19  N34        8.8620   -3.5330   -2.9570 N.ar    0  LIG0       -0.2423
     20  C40        8.9270   -2.6890   -1.8950 C.ar    0  LIG0        0.1003
     21  N58        6.7930    1.2430    6.5160 N.am    0  LIG0       -0.1754
     22  C36        5.4660    1.0230    6.2380 C.2     0  LIG0        0.2690
     23  O32        5.1210    0.5150    5.2010 O.2     0  LIG0       -0.2680
     24  C52        4.4470    1.4220    7.2530 C.ar    0  LIG0        0.0554
     25  C44        3.0920    1.1020    7.0490 C.ar    0  LIG0        0.0043
     26  C50        2.1170    1.4440    7.9800 C.ar    0  LIG0       -0.0028
     27  C57        2.4630    2.1010    9.1550 C.ar    0  LIG0       -0.0061
     28  C51        3.8050    2.4170    9.3660 C.ar    0  LIG0       -0.0028
     29  C45        4.7800    2.0770    8.4240 C.ar    0  LIG0        0.0043
     30  C64        1.4150    2.4530   10.1660 C.3     0  LIG0        0.0992
     31  N61        1.4060    3.8520   10.5190 N.3     0  LIG0       -0.2665
     32  C67        1.0190    4.6790    9.3750 C.3     0  LIG0        0.0899
     33  C65        1.0290    6.1510    9.7530 C.3     0  LIG0        0.0897
     34  N60        0.1160    6.3950   10.8860 N.3     0  LIG0       -0.2691
     35  C66        0.4750    5.5620   12.0270 C.3     0  LIG0        0.0897
     36  C68        0.4760    4.0810   11.6320 C.3     0  LIG0        0.0899
     37  C63        0.1570    7.8110   11.2710 C.3     0  LIG0        0.0897
@<TRIPOS>BOND
     1    17    18   ar
     2    17    16   ar
     3    18    19   ar
     4    16    15   ar
     5    19    20   ar
     6    15    20   ar
     7    15    13    1
     8    12    13    2
     9    12    11    1
    10    13    14    1
    11    11    10    1
    12    14     9    2
    13     9    10    2
    14     9     8    1
    15     8     7    1
    16     1     2    1
    17     7     2   ar
    18     7     6   ar
    19     2     3   ar
    20     6     5   ar
    21    23    22    2
    22     3     4   ar
    23     5     4   ar
    24     5    21    1
    25    22    21   am
    26    22    24    1
    27    25    24   ar
    28    25    26   ar
    29    24    29   ar
    30    26    27   ar
    31    29    28   ar
    32    27    28   ar
    33    27    30    1
    34    32    33    1
    35    32    31    1
    36    33    34    1
    37    30    31    1
    38    31    36    1
    39    34    37    1
    40    34    35    1
    41    36    35    1
