@<TRIPOS>MOLECULE
/Users/xuhangdai/Desktop/Projects/OptimalTransport/extra_bio_ligands_boltz_af3/boltz_results_4csv_imatinib/4csv_imatinib_model_40_chainB.pdb
 37 41 0 0 0
SMALL
GASTEIGER

@<TRIPOS>ATOM
      1  C62       12.2390   -7.1040   -2.7330 C.3     0  LIG0        0.0324
      2  C56       11.0960   -7.0610   -1.7300 C.ar    0  LIG0       -0.0057
      3  C49       11.2690   -7.5210   -0.4470 C.ar    0  LIG0       -0.0016
      4  C47       10.2270   -7.4840    0.4700 C.ar    0  LIG0        0.0164
      5  C54        8.9720   -7.0030    0.1120 C.ar    0  LIG0        0.0750
      6  C48        8.7890   -6.5420   -1.1740 C.ar    0  LIG0        0.0336
      7  C55        9.8290   -6.5650   -2.1110 C.ar    0  LIG0        0.0790
      8  N59        9.6050   -6.1310   -3.4100 N.pl3   0  LIG0       -0.1464
      9  C37        9.8030   -4.8460   -3.8390 C.1     0  LIG0        0.1117
     10  N33       10.2020   -3.9320   -2.9350 N.2     0  LIG0       -0.2015
     11  C38       10.4170   -2.6550   -3.4140 C.3     0  LIG0        0.1653
     12  C42       10.2040   -2.3460   -4.7700 C.2     0  LIG0        0.0208
     13  C41        9.7980   -3.3600   -5.6310 C.2     0  LIG0        0.0916
     14  N35        9.5950   -4.6120   -5.1540 N.2     0  LIG0       -0.1806
     15  C53        9.5590   -3.1450   -7.0700 C.ar    0  LIG0        0.0374
     16  C46        9.6970   -1.8960   -7.6690 C.ar    0  LIG0        0.0047
     17  C43        9.4590   -1.7450   -9.0180 C.ar    0  LIG0        0.0207
     18  C39        9.0780   -2.8450   -9.7630 C.ar    0  LIG0        0.0989
     19  N34        8.9370   -4.0510   -9.2100 N.ar    0  LIG0       -0.2423
     20  C40        9.1720   -4.2050   -7.8820 C.ar    0  LIG0        0.1003
     21  N58        7.9590   -7.0510    1.0970 N.am    0  LIG0       -0.1754
     22  C36        6.6160   -6.8060    0.9300 C.2     0  LIG0        0.2690
     23  O32        6.1760   -6.3780   -0.1100 O.2     0  LIG0       -0.2680
     24  C52        5.6980   -7.0820    2.0710 C.ar    0  LIG0        0.0554
     25  C44        4.3060   -6.9920    1.8840 C.ar    0  LIG0        0.0043
     26  C50        3.4200   -7.2510    2.9200 C.ar    0  LIG0       -0.0028
     27  C57        3.8940   -7.6190    4.1760 C.ar    0  LIG0       -0.0061
     28  C51        5.2710   -7.7150    4.3660 C.ar    0  LIG0       -0.0028
     29  C45        6.1550   -7.4500    3.3220 C.ar    0  LIG0        0.0043
     30  C64        2.9410   -7.9030    5.2920 C.3     0  LIG0        0.0992
     31  N61        3.2040   -7.1060    6.4720 N.3     0  LIG0       -0.2665
     32  C67        2.9740   -5.6840    6.2060 C.3     0  LIG0        0.0899
     33  C65        3.2760   -4.8470    7.4420 C.3     0  LIG0        0.0897
     34  N60        2.4370   -5.2920    8.5770 N.3     0  LIG0       -0.2691
     35  C66        2.6510   -6.7160    8.8410 C.3     0  LIG0        0.0897
     36  C68        2.3500   -7.5470    7.5830 C.3     0  LIG0        0.0899
     37  C63        2.7600   -4.5100    9.7740 C.3     0  LIG0        0.0897
@<TRIPOS>BOND
     1    18    19   ar
     2    18    17   ar
     3    19    20   ar
     4    17    16   ar
     5    20    15   ar
     6    16    15   ar
     7    15    13    1
     8    13    14    1
     9    13    12    2
    10    14     9    2
    11    12    11    1
    12     9     8    1
    13     9    10    2
    14    11    10    1
    15     8     7    1
    16     1     2    1
    17     7     2   ar
    18     7     6   ar
    19     2     3   ar
    20     6     5   ar
    21     3     4   ar
    22    23    22    2
    23     5     4   ar
    24     5    21    1
    25    22    21   am
    26    22    24    1
    27    25    24   ar
    28    25    26   ar
    29    24    29   ar
    30    26    27   ar
    31    29    28   ar
    32    27    28   ar
    33    27    30    1
    34    30    31    1
    35    32    31    1
    36    32    33    1
    37    31    36    1
    38    33    34    1
    39    36    35    1
    40    34    35    1
    41    34    37    1
