@<TRIPOS>MOLECULE
/Users/xuhangdai/Desktop/Projects/OptimalTransport/extra_bio_ligands_boltz_af3/boltz_results_4csv_imatinib/4csv_imatinib_model_42_chainB.pdb
 37 41 0 0 0
SMALL
GASTEIGER

@<TRIPOS>ATOM
      1  C62        3.8510   -5.5490   -9.6810 C.3     0  LIG0        0.0324
      2  C56        3.3950   -5.6760   -8.2360 C.ar    0  LIG0       -0.0057
      3  C49        4.0310   -6.5400   -7.3760 C.ar    0  LIG0       -0.0016
      4  C47        3.6150   -6.6600   -6.0540 C.ar    0  LIG0        0.0164
      5  C54        2.5380   -5.9300   -5.5700 C.ar    0  LIG0        0.0750
      6  C48        1.8900   -5.0650   -6.4290 C.ar    0  LIG0        0.0336
      7  C55        2.2960   -4.9220   -7.7610 C.ar    0  LIG0        0.0790
      8  N59        1.6010   -4.0680   -8.6060 N.pl3   0  LIG0       -0.1464
      9  C37        1.9450   -2.7660   -8.8510 C.1     0  LIG0        0.1117
     10  N33        3.0180   -2.2620   -8.2130 N.2     0  LIG0       -0.2015
     11  C38        3.3410   -0.9530   -8.5090 C.3     0  LIG0        0.1653
     12  C42        2.5660   -0.2020   -9.4160 C.2     0  LIG0        0.0208
     13  C41        1.4750   -0.8120  -10.0310 C.2     0  LIG0        0.0916
     14  N35        1.1710   -2.1000   -9.7360 N.2     0  LIG0       -0.1806
     15  C53        0.6000   -0.1240  -11.0050 C.ar    0  LIG0        0.0374
     16  C46        0.7960    1.2040  -11.3730 C.ar    0  LIG0        0.0047
     17  C43       -0.0480    1.8020  -12.2840 C.ar    0  LIG0        0.0207
     18  C39       -1.0880    1.0710  -12.8210 C.ar    0  LIG0        0.0989
     19  N34       -1.2970   -0.2040  -12.4870 N.ar    0  LIG0       -0.2423
     20  C40       -0.4680   -0.8000  -11.5890 C.ar    0  LIG0        0.1003
     21  N58        2.1650   -6.1540   -4.2230 N.am    0  LIG0       -0.1754
     22  C36        1.0600   -5.6620   -3.5690 C.2     0  LIG0        0.2690
     23  O32        0.3310   -4.8510   -4.0850 O.2     0  LIG0       -0.2680
     24  C52        0.7790   -6.1540   -2.1880 C.ar    0  LIG0        0.0554
     25  C44       -0.4320   -5.8130   -1.5550 C.ar    0  LIG0        0.0043
     26  C50       -0.7290   -6.2640   -0.2700 C.ar    0  LIG0       -0.0028
     27  C57        0.1700   -7.0790    0.4150 C.ar    0  LIG0       -0.0061
     28  C51        1.3650   -7.4230   -0.2130 C.ar    0  LIG0       -0.0028
     29  C45        1.6590   -6.9660   -1.5000 C.ar    0  LIG0        0.0043
     30  C64       -0.1460   -7.5660    1.7930 C.3     0  LIG0        0.0992
     31  N61        0.9120   -7.2980    2.7470 N.3     0  LIG0       -0.2665
     32  C67        1.1130   -5.8550    2.9180 C.3     0  LIG0        0.0899
     33  C65        2.2440   -5.5810    3.9020 C.3     0  LIG0        0.0897
     34  N60        1.9530   -6.2130    5.2070 N.3     0  LIG0       -0.2691
     35  C66        1.7340   -7.6480    5.0480 C.3     0  LIG0        0.0897
     36  C68        0.5950   -7.9140    4.0440 C.3     0  LIG0        0.0899
     37  C63        3.0620   -5.9760    6.1420 C.3     0  LIG0        0.0897
@<TRIPOS>BOND
     1    18    19   ar
     2    18    17   ar
     3    19    20   ar
     4    17    16   ar
     5    20    15   ar
     6    16    15   ar
     7    15    13    1
     8    13    14    1
     9    13    12    2
    10    14     9    2
    11     1     2    1
    12    12    11    1
    13     9     8    1
    14     9    10    2
    15     8     7    1
    16    11    10    1
    17     2     7   ar
    18     2     3   ar
    19     7     6   ar
    20     3     4   ar
    21     6     5   ar
    22     4     5   ar
    23     5    21    1
    24    21    22   am
    25    23    22    2
    26    22    24    1
    27    24    25   ar
    28    24    29   ar
    29    25    26   ar
    30    29    28   ar
    31    26    27   ar
    32    28    27   ar
    33    27    30    1
    34    30    31    1
    35    31    32    1
    36    31    36    1
    37    32    33    1
    38    33    34    1
    39    36    35    1
    40    35    34    1
    41    34    37    1
