@<TRIPOS>MOLECULE
/Users/xuhangdai/Desktop/Projects/OptimalTransport/extra_bio_ligands_boltz_af3/boltz_results_4csv_imatinib/4csv_imatinib_model_23_chainB.pdb
 37 41 0 0 0
SMALL
GASTEIGER

@<TRIPOS>ATOM
      1  C62        8.7460   -3.5750    8.1810 C.3     0  LIG0        0.0324
      2  C56        8.2820   -2.4150    7.3090 C.ar    0  LIG0       -0.0057
      3  C49        9.1310   -1.3790    7.0050 C.ar    0  LIG0       -0.0016
      4  C47        8.7090   -0.3190    6.2100 C.ar    0  LIG0        0.0164
      5  C54        7.4070   -0.2610    5.7200 C.ar    0  LIG0        0.0750
      6  C48        6.5520   -1.2930    6.0260 C.ar    0  LIG0        0.0336
      7  C55        6.9580   -2.3760    6.8170 C.ar    0  LIG0        0.0790
      8  N59        6.0610   -3.3900    7.1300 N.pl3   0  LIG0       -0.1464
      9  C37        5.9420   -4.5490    6.4140 C.1     0  LIG0        0.1117
     10  N33        6.7080   -4.6920    5.3130 N.2     0  LIG0       -0.2015
     11  C38        6.5740   -5.8820    4.6380 C.3     0  LIG0        0.1653
     12  C42        5.6710   -6.8700    5.0760 C.2     0  LIG0        0.0208
     13  C41        4.9330   -6.6340    6.2280 C.2     0  LIG0        0.0916
     14  N35        5.0750   -5.4630    6.8920 N.2     0  LIG0       -0.1806
     15  C53        3.9740   -7.6030    6.7840 C.ar    0  LIG0        0.0374
     16  C46        3.7240   -8.8270    6.1790 C.ar    0  LIG0        0.0047
     17  C43        2.8160   -9.6980    6.7380 C.ar    0  LIG0        0.0207
     18  C39        2.1580   -9.3350    7.8950 C.ar    0  LIG0        0.0989
     19  N34        2.3850   -8.1630    8.4950 N.ar    0  LIG0       -0.2423
     20  C40        3.2820   -7.3040    7.9470 C.ar    0  LIG0        0.1003
     21  N58        7.0510    0.8840    4.9590 N.am    0  LIG0       -0.1754
     22  C36        5.7990    1.2210    4.4960 C.2     0  LIG0        0.2690
     23  O32        4.8680    0.4610    4.5920 O.2     0  LIG0       -0.2680
     24  C52        5.6040    2.5570    3.8620 C.ar    0  LIG0        0.0554
     25  C44        4.3060    3.0060    3.5520 C.ar    0  LIG0        0.0043
     26  C50        4.0840    4.2520    2.9700 C.ar    0  LIG0       -0.0028
     27  C57        5.1510    5.0980    2.6840 C.ar    0  LIG0       -0.0061
     28  C51        6.4410    4.6640    2.9980 C.ar    0  LIG0       -0.0028
     29  C45        6.6570    3.4090    3.5800 C.ar    0  LIG0        0.0043
     30  C64        4.9160    6.4440    2.0620 C.3     0  LIG0        0.0992
     31  N61        5.7220    6.6640    0.8740 N.3     0  LIG0       -0.2665
     32  C67        5.2950    5.7760   -0.2110 C.3     0  LIG0        0.0899
     33  C65        6.1650    5.9770   -1.4450 C.3     0  LIG0        0.0897
     34  N60        6.1100    7.3840   -1.8890 N.3     0  LIG0       -0.2691
     35  C66        6.5070    8.2850   -0.8110 C.3     0  LIG0        0.0897
     36  C68        5.6240    8.0640    0.4310 C.3     0  LIG0        0.0899
     37  C63        6.9830    7.5720   -3.0580 C.3     0  LIG0        0.0897
@<TRIPOS>BOND
     1    37    34    1
     2    34    33    1
     3    34    35    1
     4    33    32    1
     5    35    36    1
     6    32    31    1
     7    36    31    1
     8    31    30    1
     9    30    27    1
    10    27    26   ar
    11    27    28   ar
    12    26    25   ar
    13    28    29   ar
    14    25    24   ar
    15    29    24   ar
    16    24    22    1
    17    22    23    2
    18    22    21   am
    19    11    12    1
    20    11    10    1
    21    21     5    1
    22    12    13    2
    23    10     9    2
    24     5     6   ar
    25     5     4   ar
    26     6     7   ar
    27    16    17   ar
    28    16    15   ar
    29     4     3   ar
    30    13    15    1
    31    13    14    1
    32     9    14    2
    33     9     8    1
    34    17    18   ar
    35    15    20   ar
    36     7     8    1
    37     7     2   ar
    38     3     2   ar
    39     2     1    1
    40    18    19   ar
    41    20    19   ar
