@<TRIPOS>MOLECULE
/Users/xuhangdai/Desktop/Projects/OptimalTransport/extra_bio_ligands_boltz_af3/boltz_results_4csv_imatinib/4csv_imatinib_model_36_chainB.pdb
 37 41 0 0 0
SMALL
GASTEIGER

@<TRIPOS>ATOM
      1  C62       -0.8740   12.4400    4.1670 C.3     0  LIG0        0.0324
      2  C56        0.1650   11.4870    3.5930 C.ar    0  LIG0       -0.0057
      3  C49        1.5000   11.6520    3.8780 C.ar    0  LIG0       -0.0016
      4  C47        2.4520   10.7850    3.3530 C.ar    0  LIG0        0.0164
      5  C54        2.0860    9.7450    2.5100 C.ar    0  LIG0        0.0750
      6  C48        0.7520    9.5720    2.2180 C.ar    0  LIG0        0.0336
      7  C55       -0.2250   10.4300    2.7400 C.ar    0  LIG0        0.0790
      8  N59       -1.5600   10.2530    2.3970 N.pl3   0  LIG0       -0.1464
      9  C37       -2.4340    9.4750    3.1100 C.1     0  LIG0        0.1117
     10  N33       -1.9500    8.8060    4.1730 N.2     0  LIG0       -0.2015
     11  C38       -2.8610    8.0530    4.8800 C.3     0  LIG0        0.1653
     12  C42       -4.2120    7.9850    4.4870 C.2     0  LIG0        0.0208
     13  C41       -4.6200    8.7160    3.3780 C.2     0  LIG0        0.0916
     14  N35       -3.7180    9.4630    2.6880 N.2     0  LIG0       -0.1806
     15  C53       -6.0110    8.7240    2.8830 C.ar    0  LIG0        0.0374
     16  C46       -7.0260    8.0160    3.5200 C.ar    0  LIG0        0.0047
     17  C43       -8.3100    8.0490    3.0200 C.ar    0  LIG0        0.0207
     18  C39       -8.5740    8.7840    1.8800 C.ar    0  LIG0        0.0989
     19  N34       -7.6170    9.4730    1.2540 N.ar    0  LIG0       -0.2423
     20  C40       -6.3480    9.4450    1.7430 C.ar    0  LIG0        0.1003
     21  N58        3.1260    8.9460    1.9850 N.am    0  LIG0       -0.1754
     22  C36        3.0090    7.9550    1.0410 C.2     0  LIG0        0.2690
     23  O32        1.9330    7.5870    0.6400 O.2     0  LIG0       -0.2680
     24  C52        4.2530    7.3290    0.5120 C.ar    0  LIG0        0.0554
     25  C44        4.1720    6.3910   -0.5340 C.ar    0  LIG0        0.0043
     26  C50        5.3120    5.7900   -1.0530 C.ar    0  LIG0       -0.0028
     27  C57        6.5690    6.1190   -0.5530 C.ar    0  LIG0       -0.0061
     28  C51        6.6520    7.0550    0.4790 C.ar    0  LIG0       -0.0028
     29  C45        5.5040    7.6510    0.9990 C.ar    0  LIG0        0.0043
     30  C64        7.8000    5.4770   -1.1080 C.3     0  LIG0        0.0992
     31  N61        8.6420    4.9200   -0.0720 N.3     0  LIG0       -0.2665
     32  C67        7.9660    3.8000    0.5960 C.3     0  LIG0        0.0899
     33  C65        8.8390    3.2270    1.7080 C.3     0  LIG0        0.0897
     34  N60       10.1420    2.7950    1.1660 N.3     0  LIG0       -0.2691
     35  C66       10.8120    3.9060    0.4910 C.3     0  LIG0        0.0897
     36  C68        9.9200    4.4740   -0.6280 C.3     0  LIG0        0.0899
     37  C63       10.9930    2.2730    2.2470 C.3     0  LIG0        0.0897
@<TRIPOS>BOND
     1    30    27    1
     2    30    31    1
     3    26    27   ar
     4    26    25   ar
     5    36    31    1
     6    36    35    1
     7    27    28   ar
     8    25    24   ar
     9    31    32    1
    10    28    29   ar
    11    35    34    1
    12    24    29   ar
    13    24    22    1
    14    32    33    1
    15    23    22    2
    16    22    21   am
    17    34    33    1
    18    34    37    1
    19    19    20   ar
    20    19    18   ar
    21    20    15   ar
    22    18    17   ar
    23    21     5    1
    24     6     5   ar
    25     6     7   ar
    26     8     7    1
    27     8     9    1
    28     5     4   ar
    29    14     9    2
    30    14    13    1
    31     7     2   ar
    32    15    13    1
    33    15    16   ar
    34    17    16   ar
    35     9    10    2
    36     4     3   ar
    37    13    12    2
    38     2     3   ar
    39     2     1    1
    40    10    11    1
    41    12    11    1
