@<TRIPOS>MOLECULE
/Users/xuhangdai/Desktop/Projects/OptimalTransport/extra_bio_ligands_boltz_af3/boltz_results_4csv_imatinib/4csv_imatinib_model_12_chainB.pdb
 37 41 0 0 0
SMALL
GASTEIGER

@<TRIPOS>ATOM
      1  C62       11.6320   -0.1560    0.7350 C.3     0  LIG0        0.0324
      2  C56       10.4530    0.6790    1.2120 C.ar    0  LIG0       -0.0057
      3  C49       10.6000    2.0240    1.4590 C.ar    0  LIG0       -0.0016
      4  C47        9.5250    2.7860    1.8980 C.ar    0  LIG0        0.0164
      5  C54        8.2850    2.2110    2.1240 C.ar    0  LIG0        0.0750
      6  C48        8.1290    0.8660    1.8780 C.ar    0  LIG0        0.0336
      7  C55        9.1940    0.0780    1.4290 C.ar    0  LIG0        0.0790
      8  N59        9.0180   -1.2810    1.2350 N.pl3   0  LIG0       -0.1464
      9  C37        8.6870   -1.8690    0.0440 C.1     0  LIG0        0.1117
     10  N33        8.4880   -1.0710   -1.0210 N.2     0  LIG0       -0.2015
     11  C38        8.1800   -1.7090   -2.2030 C.3     0  LIG0        0.1653
     12  C42        8.0650   -3.1100   -2.2630 C.2     0  LIG0        0.0208
     13  C41        8.2940   -3.8520   -1.1080 C.2     0  LIG0        0.0916
     14  N35        8.6050   -3.2180    0.0460 N.2     0  LIG0       -0.1806
     15  C53        8.2090   -5.3250   -1.0590 C.ar    0  LIG0        0.0374
     16  C46        7.8880   -6.0830   -2.1770 C.ar    0  LIG0        0.0047
     17  C43        7.8160   -7.4550   -2.0810 C.ar    0  LIG0        0.0207
     18  C39        8.0550   -8.0610   -0.8680 C.ar    0  LIG0        0.0989
     19  N34        8.3640   -7.3530    0.2220 N.ar    0  LIG0       -0.2423
     20  C40        8.4400   -6.0000    0.1310 C.ar    0  LIG0        0.1003
     21  N58        7.2710    3.0590    2.6190 N.am    0  LIG0       -0.1754
     22  C36        6.0480    2.6920    3.1120 C.2     0  LIG0        0.2690
     23  O32        5.6570    1.5540    3.0350 O.2     0  LIG0       -0.2680
     24  C52        5.2000    3.7400    3.7430 C.ar    0  LIG0        0.0554
     25  C44        5.5590    5.0690    3.7760 C.ar    0  LIG0        0.0043
     26  C50        4.7490    6.0160    4.3930 C.ar    0  LIG0       -0.0028
     27  C57        3.5550    5.6590    5.0000 C.ar    0  LIG0       -0.0061
     28  C51        3.1710    4.3150    4.9820 C.ar    0  LIG0       -0.0028
     29  C45        3.9900    3.3730    4.3660 C.ar    0  LIG0        0.0043
     30  C64        2.6830    6.6730    5.6640 C.3     0  LIG0        0.0992
     31  N61        2.4320    7.8280    4.8390 N.3     0  LIG0       -0.2665
     32  C67        1.6790    7.4550    3.6430 C.3     0  LIG0        0.0899
     33  C65        1.4310    8.6700    2.7640 C.3     0  LIG0        0.0897
     34  N60        0.7090    9.7090    3.5210 N.3     0  LIG0       -0.2691
     35  C66        1.4460   10.0760    4.7260 C.3     0  LIG0        0.0897
     36  C68        1.6930    8.8410    5.6030 C.3     0  LIG0        0.0899
     37  C63        0.5010   10.8910    2.6780 C.3     0  LIG0        0.0897
@<TRIPOS>BOND
     1    12    11    1
     2    12    13    2
     3    11    10    1
     4    16    17   ar
     5    16    15   ar
     6    17    18   ar
     7    13    15    1
     8    13    14    1
     9    15    20   ar
    10    10     9    2
    11    18    19   ar
    12     9    14    2
    13     9     8    1
    14    20    19   ar
    15     1     2    1
    16     2     7   ar
    17     2     3   ar
    18     8     7    1
    19     7     6   ar
    20     3     4   ar
    21     6     5   ar
    22     4     5   ar
    23     5    21    1
    24    21    22   am
    25    37    34    1
    26    33    34    1
    27    33    32    1
    28    23    22    2
    29    22    24    1
    30    34    35    1
    31    32    31    1
    32    24    25   ar
    33    24    29   ar
    34    25    26   ar
    35    29    28   ar
    36    26    27   ar
    37    35    36    1
    38    31    36    1
    39    31    30    1
    40    28    27   ar
    41    27    30    1
