@<TRIPOS>MOLECULE
/Users/xuhangdai/Desktop/Projects/OptimalTransport/extra_bio_ligands_boltz_af3/boltz_results_4csv_imatinib/4csv_imatinib_model_49_chainB.pdb
 37 41 0 0 0
SMALL
GASTEIGER

@<TRIPOS>ATOM
      1  C62       11.2990    7.5380    3.0670 C.3     0  LIG0        0.0324
      2  C56       10.2940    6.5910    3.7050 C.ar    0  LIG0       -0.0057
      3  C49       10.0410    6.6530    5.0540 C.ar    0  LIG0       -0.0016
      4  C47        9.1280    5.7900    5.6450 C.ar    0  LIG0        0.0164
      5  C54        8.4640    4.8270    4.8980 C.ar    0  LIG0        0.0750
      6  C48        8.7110    4.7580    3.5450 C.ar    0  LIG0        0.0336
      7  C55        9.6200    5.6200    2.9240 C.ar    0  LIG0        0.0790
      8  N59        9.8760    5.5000    1.5650 N.pl3   0  LIG0       -0.1464
      9  C37        9.2250    6.1950    0.5770 C.1     0  LIG0        0.1117
     10  N33        8.2310    7.0360    0.9360 N.2     0  LIG0       -0.2015
     11  C38        7.6230    7.7270   -0.0950 C.3     0  LIG0        0.1653
     12  C42        8.0190    7.5370   -1.4350 C.2     0  LIG0        0.0208
     13  C41        9.0580    6.6500   -1.7060 C.2     0  LIG0        0.0916
     14  N35        9.6570    5.9810   -0.6860 N.2     0  LIG0       -0.1806
     15  C53        9.5580    6.3790   -3.0730 C.ar    0  LIG0        0.0374
     16  C46        9.0120    6.9870   -4.2020 C.ar    0  LIG0        0.0047
     17  C43        9.5120    6.6980   -5.4550 C.ar    0  LIG0        0.0207
     18  C39       10.5500    5.7940   -5.5750 C.ar    0  LIG0        0.0989
     19  N34       11.0900    5.1980   -4.5100 N.ar    0  LIG0       -0.2423
     20  C40       10.6030    5.4830   -3.2700 C.ar    0  LIG0        0.1003
     21  N58        7.5900    3.9660    5.5970 N.am    0  LIG0       -0.1754
     22  C36        6.9820    2.8410    5.1130 C.2     0  LIG0        0.2690
     23  O32        7.0510    2.5310    3.9500 O.2     0  LIG0       -0.2680
     24  C52        6.2160    2.0010    6.0710 C.ar    0  LIG0        0.0554
     25  C44        5.6430    0.7930    5.6400 C.ar    0  LIG0        0.0043
     26  C50        4.9320   -0.0160    6.5130 C.ar    0  LIG0       -0.0028
     27  C57        4.7810    0.3520    7.8460 C.ar    0  LIG0       -0.0061
     28  C51        5.3560    1.5460    8.2770 C.ar    0  LIG0       -0.0028
     29  C45        6.0630    2.3570    7.3940 C.ar    0  LIG0        0.0043
     30  C64        4.0190   -0.5150    8.7880 C.3     0  LIG0        0.0992
     31  N61        3.0430    0.2230    9.5480 N.3     0  LIG0       -0.2665
     32  C67        2.0110    0.7670    8.6670 C.3     0  LIG0        0.0899
     33  C65        0.9890    1.5630    9.4650 C.3     0  LIG0        0.0897
     34  N60        0.3870    0.7110   10.5080 N.3     0  LIG0       -0.2691
     35  C66        1.4140    0.1620   11.3850 C.3     0  LIG0        0.0897
     36  C68        2.4420   -0.6370   10.5690 C.3     0  LIG0        0.0899
     37  C63       -0.5810    1.4880   11.2920 C.3     0  LIG0        0.0897
@<TRIPOS>BOND
     1    18    17   ar
     2    18    19   ar
     3    17    16   ar
     4    19    20   ar
     5    16    15   ar
     6    20    15   ar
     7    15    13    1
     8    13    12    2
     9    13    14    1
    10    12    11    1
    11    14     9    2
    12    11    10    1
    13     9    10    2
    14     9     8    1
    15     8     7    1
    16     7     6   ar
    17     7     2   ar
    18     1     2    1
    19     6     5   ar
    20     2     3   ar
    21    23    22    2
    22     5    21    1
    23     5     4   ar
    24     3     4   ar
    25    22    21   am
    26    22    24    1
    27    25    24   ar
    28    25    26   ar
    29    24    29   ar
    30    26    27   ar
    31    29    28   ar
    32    27    28   ar
    33    27    30    1
    34    32    33    1
    35    32    31    1
    36    30    31    1
    37    33    34    1
    38    31    36    1
    39    34    37    1
    40    34    35    1
    41    36    35    1
