@<TRIPOS>MOLECULE
/Users/xuhangdai/Desktop/Projects/OptimalTransport/extra_bio_ligands_boltz_af3/boltz_results_4csv_imatinib/4csv_imatinib_model_27_chainB.pdb
 37 41 0 0 0
SMALL
GASTEIGER

@<TRIPOS>ATOM
      1  C62        3.9560  -13.6030   -6.3740 C.3     0  LIG0        0.0324
      2  C56        4.5430  -12.5850   -5.4100 C.ar    0  LIG0       -0.0057
      3  C49        5.8910  -12.5520   -5.1600 C.ar    0  LIG0       -0.0016
      4  C47        6.4260  -11.6260   -4.2770 C.ar    0  LIG0        0.0164
      5  C54        5.6120  -10.7220   -3.6040 C.ar    0  LIG0        0.0750
      6  C48        4.2620  -10.7490   -3.8480 C.ar    0  LIG0        0.0336
      7  C55        3.7040  -11.6670   -4.7360 C.ar    0  LIG0        0.0790
      8  N59        2.3370  -11.6860   -4.9240 N.pl3   0  LIG0       -0.1464
      9  C37        1.6900  -11.0310   -5.9330 C.1     0  LIG0        0.1117
     10  N33        2.4310  -10.3210   -6.8010 N.2     0  LIG0       -0.2015
     11  C38        1.7420   -9.6940   -7.8110 C.3     0  LIG0        0.1653
     12  C42        0.3410   -9.7930   -7.9010 C.2     0  LIG0        0.0208
     13  C41       -0.3370  -10.5590   -6.9590 C.2     0  LIG0        0.0916
     14  N35        0.3520  -11.1740   -5.9730 N.2     0  LIG0       -0.1806
     15  C53       -1.7980  -10.7380   -6.9600 C.ar    0  LIG0        0.0374
     16  C46       -2.6130  -10.1410   -7.9130 C.ar    0  LIG0        0.0047
     17  C43       -3.9750  -10.3340   -7.8720 C.ar    0  LIG0        0.0207
     18  C39       -4.5140  -11.1210   -6.8760 C.ar    0  LIG0        0.0989
     19  N34       -3.7500  -11.7080   -5.9550 N.ar    0  LIG0       -0.2423
     20  C40       -2.4060  -11.5190   -5.9920 C.ar    0  LIG0        0.1003
     21  N58        6.2360   -9.8480   -2.6830 N.am    0  LIG0       -0.1754
     22  C36        5.6230   -8.9820   -1.8060 C.2     0  LIG0        0.2690
     23  O32        4.4350   -8.7800   -1.8380 O.2     0  LIG0       -0.2680
     24  C52        6.4740   -8.2890   -0.8040 C.ar    0  LIG0        0.0554
     25  C44        5.8710   -7.5570    0.2330 C.ar    0  LIG0        0.0043
     26  C50        6.6360   -6.9090    1.1930 C.ar    0  LIG0       -0.0028
     27  C57        8.0220   -6.9840    1.1550 C.ar    0  LIG0       -0.0061
     28  C51        8.6210   -7.7170    0.1330 C.ar    0  LIG0       -0.0028
     29  C45        7.8480   -8.3620   -0.8300 C.ar    0  LIG0        0.0043
     30  C64        8.8410   -6.2920    2.1920 C.3     0  LIG0        0.0992
     31  N61        9.8710   -5.4560    1.6260 N.3     0  LIG0       -0.2665
     32  C67        9.2790   -4.3390    0.8850 C.3     0  LIG0        0.0899
     33  C65       10.3650   -3.4770    0.2640 C.3     0  LIG0        0.0897
     34  N60       11.2840   -2.9790    1.3080 N.3     0  LIG0       -0.2691
     35  C66       11.8660   -4.0890    2.0560 C.3     0  LIG0        0.0897
     36  C68       10.7590   -4.9550    2.6750 C.3     0  LIG0        0.0899
     37  C63       12.3500   -2.1810    0.6920 C.3     0  LIG0        0.0897
@<TRIPOS>BOND
     1    16    17   ar
     2    16    15   ar
     3    12    11    1
     4    12    13    2
     5    17    18   ar
     6    11    10    1
     7    15    13    1
     8    15    20   ar
     9    13    14    1
    10    18    19   ar
    11    10     9    2
    12     1     2    1
    13    20    19   ar
    14    14     9    2
    15     9     8    1
    16     2     3   ar
    17     2     7   ar
    18     3     4   ar
    19     8     7    1
    20     7     6   ar
    21     4     5   ar
    22     6     5   ar
    23     5    21    1
    24    21    22   am
    25    23    22    2
    26    22    24    1
    27    29    24   ar
    28    29    28   ar
    29    24    25   ar
    30    28    27   ar
    31    25    26   ar
    32    33    32    1
    33    33    34    1
    34    37    34    1
    35    32    31    1
    36    27    26   ar
    37    27    30    1
    38    34    35    1
    39    31    30    1
    40    31    36    1
    41    35    36    1
