@<TRIPOS>MOLECULE
/Users/xuhangdai/Desktop/Projects/OptimalTransport/extra_bio_ligands_boltz_af3/boltz_results_4csv_imatinib/4csv_imatinib_model_44_chainB.pdb
 37 41 0 0 0
SMALL
GASTEIGER

@<TRIPOS>ATOM
      1  C62       13.0740    4.5190    2.5930 C.3     0  LIG0        0.0324
      2  C56       12.3510    3.1830    2.4700 C.ar    0  LIG0       -0.0057
      3  C49       12.8710    2.0500    3.0480 C.ar    0  LIG0       -0.0016
      4  C47       12.2150    0.8260    2.9380 C.ar    0  LIG0        0.0164
      5  C54       11.0320    0.7090    2.2180 C.ar    0  LIG0        0.0750
      6  C48       10.5070    1.8400    1.6350 C.ar    0  LIG0        0.0336
      7  C55       11.1450    3.0870    1.7400 C.ar    0  LIG0        0.0790
      8  N59       10.6100    4.2070    1.1100 N.pl3   0  LIG0       -0.1464
      9  C37        9.7800    5.1200    1.7110 C.1     0  LIG0        0.1117
     10  N33        9.4190    4.8980    2.9930 N.2     0  LIG0       -0.2015
     11  C38        8.6020    5.8490    3.5640 C.3     0  LIG0        0.1653
     12  C42        8.1660    6.9710    2.8330 C.2     0  LIG0        0.0208
     13  C41        8.6000    7.1240    1.5180 C.2     0  LIG0        0.0916
     14  N35        9.4090    6.1870    0.9650 N.2     0  LIG0       -0.1806
     15  C53        8.2140    8.2730    0.6670 C.ar    0  LIG0        0.0374
     16  C46        7.3640    9.2810    1.1160 C.ar    0  LIG0        0.0047
     17  C43        7.0300   10.3280    0.2820 C.ar    0  LIG0        0.0207
     18  C39        7.5390   10.3600   -1.0030 C.ar    0  LIG0        0.0989
     19  N34        8.3590    9.4060   -1.4540 N.ar    0  LIG0       -0.2423
     20  C40        8.6940    8.3730   -0.6320 C.ar    0  LIG0        0.1003
     21  N58       10.4690   -0.5870    2.1180 N.am    0  LIG0       -0.1754
     22  C36        9.4090   -0.9780    1.3340 C.2     0  LIG0        0.2690
     23  O32        8.7510   -0.1770    0.7190 O.2     0  LIG0       -0.2680
     24  C52        9.0820   -2.4300    1.2550 C.ar    0  LIG0        0.0554
     25  C44        8.1080   -2.8780    0.3490 C.ar    0  LIG0        0.0043
     26  C50        7.7830   -4.2230    0.2390 C.ar    0  LIG0       -0.0028
     27  C57        8.4320   -5.1710    1.0250 C.ar    0  LIG0       -0.0061
     28  C51        9.4050   -4.7320    1.9240 C.ar    0  LIG0       -0.0028
     29  C45        9.7220   -3.3800    2.0310 C.ar    0  LIG0        0.0043
     30  C64        8.0910   -6.6250    0.9020 C.3     0  LIG0        0.0992
     31  N61        7.7460   -7.2360    2.1710 N.3     0  LIG0       -0.2665
     32  C67        6.5120   -6.6610    2.7090 C.3     0  LIG0        0.0899
     33  C65        6.1670   -7.2890    4.0530 C.3     0  LIG0        0.0897
     34  N60        6.0190   -8.7510    3.9160 N.3     0  LIG0       -0.2691
     35  C66        7.2380   -9.3380    3.3620 C.3     0  LIG0        0.0897
     36  C68        7.5810   -8.6890    2.0070 C.3     0  LIG0        0.0899
     37  C63        5.7250   -9.3560    5.2230 C.3     0  LIG0        0.0897
@<TRIPOS>BOND
     1    19    18   ar
     2    19    20   ar
     3    18    17   ar
     4    20    15   ar
     5    26    25   ar
     6    26    27   ar
     7    17    16   ar
     8    25    24   ar
     9    15    16   ar
    10    15    13    1
    11    23    22    2
    12    30    27    1
    13    30    31    1
    14    14    13    1
    15    14     9    2
    16    27    28   ar
    17     8     9    1
    18     8     7    1
    19    24    22    1
    20    24    29   ar
    21    22    21   am
    22    13    12    2
    23     6     7   ar
    24     6     5   ar
    25     9    10    2
    26     7     2   ar
    27    28    29   ar
    28    36    31    1
    29    36    35    1
    30    21     5    1
    31    31    32    1
    32     5     4   ar
    33     2     1    1
    34     2     3   ar
    35    32    33    1
    36    12    11    1
    37     4     3   ar
    38    10    11    1
    39    35    34    1
    40    34    33    1
    41    34    37    1
