@<TRIPOS>MOLECULE
/Users/xuhangdai/Desktop/Projects/OptimalTransport/extra_bio_ligands_boltz_af3/boltz_results_4csv_imatinib/4csv_imatinib_model_43_chainB.pdb
 37 41 0 0 0
SMALL
GASTEIGER

@<TRIPOS>ATOM
      1  C62       13.2250   -3.8200    3.3580 C.3     0  LIG0        0.0324
      2  C56       12.2340   -2.6710    3.4790 C.ar    0  LIG0       -0.0057
      3  C49       12.6710   -1.3870    3.6800 C.ar    0  LIG0       -0.0016
      4  C47       11.7650   -0.3400    3.7930 C.ar    0  LIG0        0.0164
      5  C54       10.3950   -0.5620    3.7250 C.ar    0  LIG0        0.0750
      6  C48        9.9500   -1.8470    3.5250 C.ar    0  LIG0        0.0336
      7  C55       10.8420   -2.9130    3.4050 C.ar    0  LIG0        0.0790
      8  N59       10.3600   -4.1990    3.2460 N.pl3   0  LIG0       -0.1464
      9  C37       10.1210   -4.7850    2.0360 C.1     0  LIG0        0.1117
     10  N33       10.3410   -4.0550    0.9250 N.2     0  LIG0       -0.2015
     11  C38       10.1110   -4.6960   -0.2700 C.3     0  LIG0        0.1653
     12  C42        9.6540   -6.0260   -0.3020 C.2     0  LIG0        0.0208
     13  C41        9.4630   -6.6960    0.9010 C.2     0  LIG0        0.0916
     14  N35        9.6990   -6.0640    2.0700 N.2     0  LIG0       -0.1806
     15  C53        9.0020   -8.0910    0.9850 C.ar    0  LIG0        0.0374
     16  C46        8.7320   -8.8520   -0.1460 C.ar    0  LIG0        0.0047
     17  C43        8.3010  -10.1510   -0.0160 C.ar    0  LIG0        0.0207
     18  C39        8.1330  -10.6800    1.2470 C.ar    0  LIG0        0.0989
     19  N34        8.3890   -9.9700    2.3460 N.ar    0  LIG0       -0.2423
     20  C40        8.8150   -8.6890    2.2230 C.ar    0  LIG0        0.1003
     21  N58        9.5530    0.5580    3.8950 N.am    0  LIG0       -0.1754
     22  C36        8.1860    0.5590    4.0390 C.2     0  LIG0        0.2690
     23  O32        7.5270   -0.4450    3.8950 O.2     0  LIG0       -0.2680
     24  C52        7.5280    1.8530    4.3790 C.ar    0  LIG0        0.0554
     25  C44        8.2130    3.0470    4.4070 C.ar    0  LIG0        0.0043
     26  C50        7.5700    4.2340    4.7470 C.ar    0  LIG0       -0.0028
     27  C57        6.2170    4.2580    5.0700 C.ar    0  LIG0       -0.0061
     28  C51        5.5050    3.0540    5.0500 C.ar    0  LIG0       -0.0028
     29  C45        6.1570    1.8700    4.7150 C.ar    0  LIG0        0.0043
     30  C64        5.5230    5.5300    5.4350 C.3     0  LIG0        0.0992
     31  N61        5.7460    6.5850    4.4710 N.3     0  LIG0       -0.2665
     32  C67        5.1130    6.2540    3.1880 C.3     0  LIG0        0.0899
     33  C65        5.3750    7.3520    2.1670 C.3     0  LIG0        0.0897
     34  N60        4.8710    8.6460    2.6700 N.3     0  LIG0       -0.2691
     35  C66        5.4870    8.9750    3.9560 C.3     0  LIG0        0.0897
     36  C68        5.2240    7.8580    4.9800 C.3     0  LIG0        0.0899
     37  C63        5.1530    9.7090    1.6940 C.3     0  LIG0        0.0897
@<TRIPOS>BOND
     1    12    11    1
     2    12    13    2
     3    11    10    1
     4    16    17   ar
     5    16    15   ar
     6    17    18   ar
     7    13    15    1
     8    13    14    1
     9    10     9    2
    10    15    20   ar
    11    18    19   ar
    12    37    34    1
    13     9    14    2
    14     9     8    1
    15    33    34    1
    16    33    32    1
    17    20    19   ar
    18    34    35    1
    19    32    31    1
    20     8     7    1
    21     1     2    1
    22     7     2   ar
    23     7     6   ar
    24     2     3   ar
    25     6     5   ar
    26     3     4   ar
    27     5     4   ar
    28     5    21    1
    29    23    22    2
    30    21    22   am
    31    35    36    1
    32    22    24    1
    33    24    25   ar
    34    24    29   ar
    35    25    26   ar
    36    31    36    1
    37    31    30    1
    38    29    28   ar
    39    26    27   ar
    40    28    27   ar
    41    27    30    1
