@<TRIPOS>MOLECULE
/Users/xuhangdai/Desktop/Projects/OptimalTransport/extra_bio_ligands_boltz_af3/boltz_results_4csv_imatinib/4csv_imatinib_model_21_chainB.pdb
 37 41 0 0 0
SMALL
GASTEIGER

@<TRIPOS>ATOM
      1  C62       12.9190   -0.7300   -0.2590 C.3     0  LIG0        0.0324
      2  C56       11.5890   -0.6360   -0.9900 C.ar    0  LIG0       -0.0057
      3  C49       11.5020   -0.9420   -2.3240 C.ar    0  LIG0       -0.0016
      4  C47       10.2890   -0.8550   -2.9950 C.ar    0  LIG0        0.0164
      5  C54        9.1410   -0.4300   -2.3460 C.ar    0  LIG0        0.0750
      6  C48        9.2210   -0.1180   -1.0130 C.ar    0  LIG0        0.0336
      7  C55       10.4260   -0.2080   -0.3140 C.ar    0  LIG0        0.0790
      8  N59       10.4790    0.1460    1.0210 N.pl3   0  LIG0       -0.1464
      9  C37       10.3490   -0.7410    2.0510 C.1     0  LIG0        0.1117
     10  N33       10.1470   -2.0340    1.7450 N.2     0  LIG0       -0.2015
     11  C38       10.0420   -2.8930    2.8110 C.3     0  LIG0        0.1653
     12  C42       10.1290   -2.4270    4.1310 C.2     0  LIG0        0.0208
     13  C41       10.3490   -1.0740    4.3450 C.2     0  LIG0        0.0916
     14  N35       10.4560   -0.2320    3.2930 N.2     0  LIG0       -0.1806
     15  C53       10.4710   -0.4790    5.6810 C.ar    0  LIG0        0.0374
     16  C46       10.3510   -1.2350    6.8380 C.ar    0  LIG0        0.0047
     17  C43       10.4720   -0.6330    8.0650 C.ar    0  LIG0        0.0207
     18  C39       10.7020    0.7210    8.1300 C.ar    0  LIG0        0.0989
     19  N34       10.8230    1.4690    7.0310 N.ar    0  LIG0       -0.2423
     20  C40       10.7060    0.8800    5.8180 C.ar    0  LIG0        0.1003
     21  N58        7.9670   -0.3230   -3.1210 N.am    0  LIG0       -0.1754
     22  C36        6.7700    0.2170   -2.7390 C.2     0  LIG0        0.2690
     23  O32        6.5550    0.5320   -1.5980 O.2     0  LIG0       -0.2680
     24  C52        5.7140    0.4100   -3.7690 C.ar    0  LIG0        0.0554
     25  C44        4.5470    1.1190   -3.4370 C.ar    0  LIG0        0.0043
     26  C50        3.5490    1.3390   -4.3720 C.ar    0  LIG0       -0.0028
     27  C57        3.6910    0.8660   -5.6700 C.ar    0  LIG0       -0.0061
     28  C51        4.8500    0.1720   -6.0030 C.ar    0  LIG0       -0.0028
     29  C45        5.8470   -0.0510   -5.0580 C.ar    0  LIG0        0.0043
     30  C64        2.6180    1.1130   -6.6770 C.3     0  LIG0        0.0992
     31  N61        2.2340   -0.0700   -7.3870 N.3     0  LIG0       -0.2665
     32  C67        1.6470   -1.0570   -6.4780 C.3     0  LIG0        0.0899
     33  C65        1.2480   -2.3110   -7.2270 C.3     0  LIG0        0.0897
     34  N60        0.3010   -1.9790   -8.3110 N.3     0  LIG0       -0.2691
     35  C66        0.8810   -0.9950   -9.2180 C.3     0  LIG0        0.0897
     36  C68        1.2820    0.2700   -8.4480 C.3     0  LIG0        0.0899
     37  C63       -0.0590   -3.1950   -9.0490 C.3     0  LIG0        0.0897
@<TRIPOS>BOND
     1    35    36    1
     2    35    34    1
     3    37    34    1
     4    36    31    1
     5    34    33    1
     6    31    30    1
     7    31    32    1
     8    33    32    1
     9    30    27    1
    10    28    27   ar
    11    28    29   ar
    12    27    26   ar
    13    29    24   ar
    14    26    25   ar
    15    24    25   ar
    16    24    22    1
    17    21    22   am
    18    21     5    1
    19     4     5   ar
    20     4     3   ar
    21    22    23    2
    22     5     6   ar
    23     3     2   ar
    24     6     7   ar
    25     2     7   ar
    26     2     1    1
    27     7     8    1
    28     8     9    1
    29    10     9    2
    30    10    11    1
    31     9    14    2
    32    11    12    1
    33    14    13    1
    34    12    13    2
    35    13    15    1
    36    15    20   ar
    37    15    16   ar
    38    20    19   ar
    39    16    17   ar
    40    19    18   ar
    41    17    18   ar
