@<TRIPOS>MOLECULE
/Users/xuhangdai/Desktop/Projects/OptimalTransport/extra_bio_ligands_boltz_af3/boltz_results_4csv_imatinib/4csv_imatinib_model_1_chainB.pdb
 37 41 0 0 0
SMALL
GASTEIGER

@<TRIPOS>ATOM
      1  C62        3.4900    2.2790  -13.7610 C.3     0  LIG0        0.0324
      2  C56        3.6040    2.7820  -12.3290 C.ar    0  LIG0       -0.0057
      3  C49        3.6000    4.1300  -12.0580 C.ar    0  LIG0       -0.0016
      4  C47        3.7090    4.5890  -10.7510 C.ar    0  LIG0        0.0164
      5  C54        3.8470    3.7080   -9.6850 C.ar    0  LIG0        0.0750
      6  C48        3.8550    2.3570   -9.9500 C.ar    0  LIG0        0.0336
      7  C55        3.7370    1.8690  -11.2560 C.ar    0  LIG0        0.0790
      8  N59        3.7800    0.5040  -11.4960 N.pl3   0  LIG0       -0.1464
      9  C37        2.6730   -0.2940  -11.6340 C.1     0  LIG0        0.1117
     10  N33        1.4600    0.2810  -11.5020 N.2     0  LIG0       -0.2015
     11  C38        0.3770   -0.5540  -11.6730 C.3     0  LIG0        0.1653
     12  C42        0.5530   -1.9250  -11.9500 C.2     0  LIG0        0.0208
     13  C41        1.8460   -2.4240  -12.0740 C.2     0  LIG0        0.0916
     14  N35        2.9080   -1.5930  -11.9120 N.2     0  LIG0       -0.1806
     15  C53        2.1430   -3.8410  -12.3740 C.ar    0  LIG0        0.0374
     16  C46        1.1390   -4.7890  -12.5310 C.ar    0  LIG0        0.0047
     17  C43        1.4650   -6.1000  -12.8080 C.ar    0  LIG0        0.0207
     18  C39        2.7930   -6.4580  -12.9170 C.ar    0  LIG0        0.0989
     19  N34        3.7740   -5.5630  -12.7690 N.ar    0  LIG0       -0.2423
     20  C40        3.4580   -4.2680  -12.5010 C.ar    0  LIG0        0.1003
     21  N58        3.9990    4.2830   -8.4010 N.am    0  LIG0       -0.1754
     22  C36        4.3000    3.6350   -7.2290 C.2     0  LIG0        0.2690
     23  O32        4.3400    2.4290   -7.1620 O.2     0  LIG0       -0.2680
     24  C52        4.5750    4.4730   -6.0180 C.ar    0  LIG0        0.0554
     25  C44        4.4010    5.8360   -6.0040 C.ar    0  LIG0        0.0043
     26  C50        4.6810    6.5880   -4.8640 C.ar    0  LIG0       -0.0028
     27  C57        5.1500    5.9890   -3.6970 C.ar    0  LIG0       -0.0061
     28  C51        5.3390    4.6050   -3.6950 C.ar    0  LIG0       -0.0028
     29  C45        5.0600    3.8630   -4.8400 C.ar    0  LIG0        0.0043
     30  C64        5.4560    6.7930   -2.4680 C.3     0  LIG0        0.0992
     31  N61        4.3570    7.6500   -2.0710 N.3     0  LIG0       -0.2665
     32  C67        3.2240    6.8400   -1.6010 C.3     0  LIG0        0.0899
     33  C65        2.0560    7.7370   -1.2100 C.3     0  LIG0        0.0897
     34  N60        2.4710    8.6890   -0.1600 N.3     0  LIG0       -0.2691
     35  C66        3.6110    9.4850   -0.6070 C.3     0  LIG0        0.0897
     36  C68        4.7830    8.5700   -1.0100 C.3     0  LIG0        0.0899
     37  C63        1.3450    9.5740    0.1860 C.3     0  LIG0        0.0897
@<TRIPOS>BOND
     1     1     2    1
     2    18    17   ar
     3    18    19   ar
     4    17    16   ar
     5    19    20   ar
     6    16    15   ar
     7    20    15   ar
     8    15    13    1
     9     2     3   ar
    10     2     7   ar
    11    13    12    2
    12    13    14    1
    13     3     4   ar
    14    12    11    1
    15    14     9    2
    16    11    10    1
    17     9    10    2
    18     9     8    1
    19     8     7    1
    20     7     6   ar
    21     4     5   ar
    22     6     5   ar
    23     5    21    1
    24    21    22   am
    25    22    23    2
    26    22    24    1
    27    24    25   ar
    28    24    29   ar
    29    25    26   ar
    30    26    27   ar
    31    29    28   ar
    32    27    28   ar
    33    27    30    1
    34    30    31    1
    35    31    32    1
    36    31    36    1
    37    32    33    1
    38    33    34    1
    39    36    35    1
    40    35    34    1
    41    34    37    1
