@<TRIPOS>MOLECULE
/Users/xuhangdai/Desktop/Projects/OptimalTransport/extra_bio_ligands_boltz_af3/boltz_results_4csv_imatinib/4csv_imatinib_model_14_chainB.pdb
 37 41 0 0 0
SMALL
GASTEIGER

@<TRIPOS>ATOM
      1  C62       -4.2700   14.5300    0.9030 C.3     0  LIG0        0.0324
      2  C56       -3.0050   13.6890    0.9440 C.ar    0  LIG0       -0.0057
      3  C49       -1.8940   14.1270    1.6180 C.ar    0  LIG0       -0.0016
      4  C47       -0.7400   13.3610    1.6550 C.ar    0  LIG0        0.0164
      5  C54       -0.6660   12.1430    1.0000 C.ar    0  LIG0        0.0750
      6  C48       -1.7700   11.6980    0.3190 C.ar    0  LIG0        0.0336
      7  C55       -2.9460   12.4490    0.2700 C.ar    0  LIG0        0.0790
      8  N59       -4.0300   11.9910   -0.4530 N.pl3   0  LIG0       -0.1464
      9  C37       -5.0610   11.2800    0.0830 C.1     0  LIG0        0.1117
     10  N33       -4.9930   10.9600    1.3880 N.2     0  LIG0       -0.2015
     11  C38       -6.0630   10.2660    1.8900 C.3     0  LIG0        0.1653
     12  C42       -7.1460    9.9060    1.0710 C.2     0  LIG0        0.0208
     13  C41       -7.1270   10.2920   -0.2640 C.2     0  LIG0        0.0916
     14  N35       -6.0730   10.9810   -0.7520 N.2     0  LIG0       -0.1806
     15  C53       -8.2110    9.9800   -1.2070 C.ar    0  LIG0        0.0374
     16  C46       -9.3410    9.2740   -0.8200 C.ar    0  LIG0        0.0047
     17  C43      -10.3260    9.0020   -1.7350 C.ar    0  LIG0        0.0207
     18  C39      -10.1760    9.4330   -3.0340 C.ar    0  LIG0        0.0989
     19  N34       -9.1010   10.1170   -3.4280 N.ar    0  LIG0       -0.2423
     20  C40       -8.1270   10.3880   -2.5290 C.ar    0  LIG0        0.1003
     21  N58        0.5630   11.4570    1.0600 N.am    0  LIG0       -0.1754
     22  C36        0.9130   10.3210    0.3850 C.2     0  LIG0        0.2690
     23  O32        0.1100    9.7150   -0.2730 O.2     0  LIG0       -0.2680
     24  C52        2.3190    9.8410    0.4810 C.ar    0  LIG0        0.0554
     25  C44        3.2550   10.4310    1.2930 C.ar    0  LIG0        0.0043
     26  C50        4.5620    9.9570    1.3420 C.ar    0  LIG0       -0.0028
     27  C57        4.9690    8.8760    0.5770 C.ar    0  LIG0       -0.0061
     28  C51        4.0340    8.2640   -0.2570 C.ar    0  LIG0       -0.0028
     29  C45        2.7310    8.7480   -0.3050 C.ar    0  LIG0        0.0043
     30  C64        6.3700    8.3580    0.6260 C.3     0  LIG0        0.0992
     31  N61        6.8530    8.1630    1.9650 N.3     0  LIG0       -0.2665
     32  C67        6.1010    7.0990    2.6390 C.3     0  LIG0        0.0899
     33  C65        6.5910    6.9240    4.0680 C.3     0  LIG0        0.0897
     34  N60        8.0350    6.6180    4.0810 N.3     0  LIG0       -0.2691
     35  C66        8.7890    7.6630    3.3890 C.3     0  LIG0        0.0897
     36  C68        8.2790    7.8340    1.9510 C.3     0  LIG0        0.0899
     37  C63        8.5050    6.4910    5.4630 C.3     0  LIG0        0.0897
@<TRIPOS>BOND
     1    19    18   ar
     2    19    20   ar
     3    18    17   ar
     4    20    15   ar
     5    17    16   ar
     6    15    16   ar
     7    15    13    1
     8    14    13    1
     9    14     9    2
    10     8     9    1
    11     8     7    1
    12    29    28   ar
    13    29    24   ar
    14    23    22    2
    15    13    12    2
    16    28    27   ar
    17     9    10    2
    18     7     6   ar
    19     7     2   ar
    20     6     5   ar
    21    22    24    1
    22    22    21   am
    23    24    25   ar
    24    27    30    1
    25    27    26   ar
    26    30    31    1
    27     1     2    1
    28     2     3   ar
    29     5    21    1
    30     5     4   ar
    31    12    11    1
    32    25    26   ar
    33    10    11    1
    34     3     4   ar
    35    36    31    1
    36    36    35    1
    37    31    32    1
    38    32    33    1
    39    35    34    1
    40    33    34    1
    41    34    37    1
