@<TRIPOS>MOLECULE
/Users/xuhangdai/Desktop/Projects/OptimalTransport/extra_bio_ligands_boltz_af3/boltz_results_4csv_imatinib/4csv_imatinib_model_37_chainB.pdb
 37 41 0 0 0
SMALL
GASTEIGER

@<TRIPOS>ATOM
      1  C62       -0.7480    8.9720   -8.1970 C.3     0  LIG0        0.0324
      2  C56       -1.5450    8.0270   -7.3070 C.ar    0  LIG0       -0.0057
      3  C49       -2.8090    7.6320   -7.6630 C.ar    0  LIG0       -0.0016
      4  C47       -3.5380    6.7710   -6.8540 C.ar    0  LIG0        0.0164
      5  C54       -3.0160    6.3040   -5.6530 C.ar    0  LIG0        0.0750
      6  C48       -1.7540    6.6960   -5.2890 C.ar    0  LIG0        0.0336
      7  C55       -1.0020    7.5540   -6.0900 C.ar    0  LIG0        0.0790
      8  N59        0.2560    7.9520   -5.6770 N.pl3   0  LIG0       -0.1464
      9  C37        1.4110    7.2840   -5.9870 C.1     0  LIG0        0.1117
     10  N33        1.3190    6.1680   -6.7370 N.2     0  LIG0       -0.2015
     11  C38        2.5080    5.5470   -7.0400 C.3     0  LIG0        0.1653
     12  C42        3.7320    6.0540   -6.5720 C.2     0  LIG0        0.0208
     13  C41        3.7210    7.2180   -5.8090 C.2     0  LIG0        0.0916
     14  N35        2.5500    7.8290   -5.5190 N.2     0  LIG0       -0.1806
     15  C53        4.9420    7.8430   -5.2730 C.ar    0  LIG0        0.0374
     16  C46        6.2050    7.3030   -5.4920 C.ar    0  LIG0        0.0047
     17  C43        7.3160    7.9220   -4.9680 C.ar    0  LIG0        0.0207
     18  C39        7.1600    9.0700   -4.2210 C.ar    0  LIG0        0.0989
     19  N34        5.9590    9.6090   -4.0000 N.ar    0  LIG0       -0.2423
     20  C40        4.8590    9.0040   -4.5140 C.ar    0  LIG0        0.1003
     21  N58       -3.8400    5.4630   -4.8780 N.am    0  LIG0       -0.1754
     22  C36       -3.5990    5.0070   -3.6080 C.2     0  LIG0        0.2690
     23  O32       -2.5520    5.2130   -3.0460 O.2     0  LIG0       -0.2680
     24  C52       -4.6760    4.2340   -2.9300 C.ar    0  LIG0        0.0554
     25  C44       -4.5060    3.8150   -1.5980 C.ar    0  LIG0        0.0043
     26  C50       -5.4950    3.0990   -0.9380 C.ar    0  LIG0       -0.0028
     27  C57       -6.6860    2.7880   -1.5870 C.ar    0  LIG0       -0.0061
     28  C51       -6.8590    3.2100   -2.9050 C.ar    0  LIG0       -0.0028
     29  C45       -5.8620    3.9240   -3.5620 C.ar    0  LIG0        0.0043
     30  C64       -7.7530    2.0130   -0.8850 C.3     0  LIG0        0.0992
     31  N61       -8.1800    0.8540   -1.6330 N.3     0  LIG0       -0.2665
     32  C67       -7.0880   -0.1150   -1.7630 C.3     0  LIG0        0.0899
     33  C65       -7.5310   -1.3390   -2.5440 C.3     0  LIG0        0.0897
     34  N60       -8.7050   -1.9640   -1.8980 N.3     0  LIG0       -0.2691
     35  C66       -9.7960   -1.0020   -1.7730 C.3     0  LIG0        0.0897
     36  C68       -9.3390    0.2330   -0.9800 C.3     0  LIG0        0.0899
     37  C63       -9.1450   -3.1300   -2.6720 C.3     0  LIG0        0.0897
@<TRIPOS>BOND
     1     1     2    1
     2     3     2   ar
     3     3     4   ar
     4     2     7   ar
     5    11    10    1
     6    11    12    1
     7     4     5   ar
     8    10     9    2
     9    12    13    2
    10     7     8    1
    11     7     6   ar
    12     9     8    1
    13     9    14    2
    14    13    14    1
    15    13    15    1
    16     5     6   ar
    17     5    21    1
    18    16    15   ar
    19    16    17   ar
    20    15    20   ar
    21    17    18   ar
    22    21    22   am
    23    20    19   ar
    24    18    19   ar
    25    22    23    2
    26    22    24    1
    27    29    24   ar
    28    29    28   ar
    29    24    25   ar
    30    28    27   ar
    31    37    34    1
    32    33    34    1
    33    33    32    1
    34    34    35    1
    35    35    36    1
    36    32    31    1
    37    31    36    1
    38    31    30    1
    39    25    26   ar
    40    27    26   ar
    41    27    30    1
