@<TRIPOS>MOLECULE
/Users/xuhangdai/Desktop/Projects/OptimalTransport/extra_bio_ligands_boltz_af3/boltz_results_4csv_imatinib/4csv_imatinib_model_29_chainB.pdb
 37 41 0 0 0
SMALL
GASTEIGER

@<TRIPOS>ATOM
      1  C62        7.4560  -10.8430   -2.9220 C.3     0  LIG0        0.0324
      2  C56        6.0670  -10.2490   -3.1120 C.ar    0  LIG0       -0.0057
      3  C49        4.9740  -11.0600   -3.2960 C.ar    0  LIG0       -0.0016
      4  C47        3.7070  -10.5150   -3.4730 C.ar    0  LIG0        0.0164
      5  C54        3.5090   -9.1390   -3.4930 C.ar    0  LIG0        0.0750
      6  C48        4.6000   -8.3220   -3.3140 C.ar    0  LIG0        0.0336
      7  C55        5.8840   -8.8480   -3.1270 C.ar    0  LIG0        0.0790
      8  N59        6.9660   -7.9990   -2.9800 N.pl3   0  LIG0       -0.1464
      9  C37        7.4620   -7.5920   -1.7710 C.1     0  LIG0        0.1117
     10  N33        6.8690   -8.0560   -0.6540 N.2     0  LIG0       -0.2015
     11  C38        7.4190   -7.6370    0.5370 C.3     0  LIG0        0.1653
     12  C42        8.5220   -6.7650    0.5610 C.2     0  LIG0        0.0208
     13  C41        9.0700   -6.3500   -0.6470 C.2     0  LIG0        0.0916
     14  N35        8.5280   -6.7700   -1.8150 N.2     0  LIG0       -0.1806
     15  C53       10.2360   -5.4520   -0.7400 C.ar    0  LIG0        0.0374
     16  C46       10.8620   -4.9340    0.3840 C.ar    0  LIG0        0.0047
     17  C43       11.9490   -4.0990    0.2460 C.ar    0  LIG0        0.0207
     18  C39       12.3990   -3.7820   -1.0190 C.ar    0  LIG0        0.0989
     19  N34       11.8110   -4.2700   -2.1140 N.ar    0  LIG0       -0.2423
     20  C40       10.7420   -5.0930   -1.9830 C.ar    0  LIG0        0.1003
     21  N58        2.1900   -8.6860   -3.7240 N.am    0  LIG0       -0.1754
     22  C36        1.7670   -7.4020   -3.9770 C.2     0  LIG0        0.2690
     23  O32        2.5190   -6.4580   -3.9020 O.2     0  LIG0       -0.2680
     24  C52        0.3340   -7.2080   -4.3530 C.ar    0  LIG0        0.0554
     25  C44       -0.5960   -8.2210   -4.2800 C.ar    0  LIG0        0.0043
     26  C50       -1.9210   -8.0080   -4.6540 C.ar    0  LIG0       -0.0028
     27  C57       -2.3530   -6.7710   -5.1140 C.ar    0  LIG0       -0.0061
     28  C51       -1.4240   -5.7300   -5.1950 C.ar    0  LIG0       -0.0028
     29  C45       -0.1010   -5.9510   -4.8230 C.ar    0  LIG0        0.0043
     30  C64       -3.7730   -6.5390   -5.5250 C.3     0  LIG0        0.0992
     31  N61       -4.7280   -6.9270   -4.5040 N.3     0  LIG0       -0.2665
     32  C67       -4.6260   -6.0420   -3.3380 C.3     0  LIG0        0.0899
     33  C65       -5.6190   -6.4570   -2.2590 C.3     0  LIG0        0.0897
     34  N60       -6.9950   -6.4430   -2.7940 N.3     0  LIG0       -0.2691
     35  C66       -7.1030   -7.3140   -3.9620 C.3     0  LIG0        0.0897
     36  C68       -6.0940   -6.8890   -5.0450 C.3     0  LIG0        0.0899
     37  C63       -7.9450   -6.8760   -1.7620 C.3     0  LIG0        0.0897
@<TRIPOS>BOND
     1    30    27    1
     2    30    31    1
     3    28    27   ar
     4    28    29   ar
     5    27    26   ar
     6    36    31    1
     7    36    35    1
     8    29    24   ar
     9    26    25   ar
    10    31    32    1
    11    24    25   ar
    12    24    22    1
    13    22    23    2
    14    22    21   am
    15    35    34    1
    16    21     5    1
    17     5     4   ar
    18     5     6   ar
    19     4     3   ar
    20    32    33    1
    21     6     7   ar
    22     3     2   ar
    23     7     2   ar
    24     7     8    1
    25     2     1    1
    26     8     9    1
    27    34    33    1
    28    34    37    1
    29    19    20   ar
    30    19    18   ar
    31    20    15   ar
    32    14     9    2
    33    14    13    1
    34     9    10    2
    35    18    17   ar
    36    15    13    1
    37    15    16   ar
    38    10    11    1
    39    13    12    2
    40    17    16   ar
    41    11    12    1
