@<TRIPOS>MOLECULE
/Users/xuhangdai/Desktop/Projects/OptimalTransport/extra_bio_ligands_boltz_af3/boltz_results_4csv_imatinib/4csv_imatinib_model_8_chainB.pdb
 37 41 0 0 0
SMALL
GASTEIGER

@<TRIPOS>ATOM
      1  C62       12.2520    0.8330   -3.1510 C.3     0  LIG0        0.0324
      2  C56       11.0420    1.5470   -2.5630 C.ar    0  LIG0       -0.0057
      3  C49       10.9290    2.9130   -2.6410 C.ar    0  LIG0       -0.0016
      4  C47        9.8260    3.5650   -2.1040 C.ar    0  LIG0        0.0164
      5  C54        8.8200    2.8600   -1.4580 C.ar    0  LIG0        0.0750
      6  C48        8.9270    1.4910   -1.3750 C.ar    0  LIG0        0.0336
      7  C55       10.0230    0.8130   -1.9140 C.ar    0  LIG0        0.0790
      8  N59       10.1190   -0.5630   -1.7850 N.pl3   0  LIG0       -0.1464
      9  C37        9.6880   -1.4620   -2.7230 C.1     0  LIG0        0.1117
     10  N33        9.0850   -0.9810   -3.8270 N.2     0  LIG0       -0.2015
     11  C38        8.6880   -1.9180   -4.7540 C.3     0  LIG0        0.1653
     12  C42        8.8950   -3.2930   -4.5330 C.2     0  LIG0        0.0208
     13  C41        9.5340   -3.6930   -3.3640 C.2     0  LIG0        0.0916
     14  N35        9.9290   -2.7650   -2.4610 N.2     0  LIG0       -0.1806
     15  C53        9.8150   -5.1080   -3.0400 C.ar    0  LIG0        0.0374
     16  C46        9.4600   -6.1500   -3.8860 C.ar    0  LIG0        0.0047
     17  C43        9.7410   -7.4550   -3.5360 C.ar    0  LIG0        0.0207
     18  C39       10.3660   -7.7080   -2.3320 C.ar    0  LIG0        0.0989
     19  N34       10.7200   -6.7220   -1.5030 N.ar    0  LIG0       -0.2423
     20  C40       10.4480   -5.4350   -1.8460 C.ar    0  LIG0        0.1003
     21  N58        7.7630    3.6190   -0.9090 N.am    0  LIG0       -0.1754
     22  C36        6.7590    3.1690   -0.0920 C.2     0  LIG0        0.2690
     23  O32        6.6210    1.9930    0.1550 O.2     0  LIG0       -0.2680
     24  C52        5.8290    4.1780    0.4880 C.ar    0  LIG0        0.0554
     25  C44        5.8480    5.5100    0.1250 C.ar    0  LIG0        0.0043
     26  C50        4.9700    6.4240    0.7040 C.ar    0  LIG0       -0.0028
     27  C57        4.0480    6.0300    1.6660 C.ar    0  LIG0       -0.0061
     28  C51        4.0150    4.6860    2.0490 C.ar    0  LIG0       -0.0028
     29  C45        4.8990    3.7770    1.4670 C.ar    0  LIG0        0.0043
     30  C64        3.1070    7.0020    2.2980 C.3     0  LIG0        0.0992
     31  N61        2.4060    7.8230    1.3430 N.3     0  LIG0       -0.2665
     32  C67        1.4840    7.0160    0.5380 C.3     0  LIG0        0.0899
     33  C65        0.7510    7.8950   -0.4680 C.3     0  LIG0        0.0897
     34  N60        0.0200    8.9700    0.2280 N.3     0  LIG0       -0.2691
     35  C66        0.9300    9.7690    1.0450 C.3     0  LIG0        0.0897
     36  C68        1.6650    8.8730    2.0520 C.3     0  LIG0        0.0899
     37  C63       -0.6650    9.8360   -0.7420 C.3     0  LIG0        0.0897
@<TRIPOS>BOND
     1    11    12    1
     2    11    10    1
     3    12    13    2
     4    16    17   ar
     5    16    15   ar
     6    10     9    2
     7    17    18   ar
     8    13    15    1
     9    13    14    1
    10     1     2    1
    11    15    20   ar
    12     9    14    2
    13     9     8    1
    14     3     2   ar
    15     3     4   ar
    16     2     7   ar
    17    18    19   ar
    18     4     5   ar
    19     7     8    1
    20     7     6   ar
    21    20    19   ar
    22     5     6   ar
    23     5    21    1
    24    21    22   am
    25    37    34    1
    26    33    34    1
    27    33    32    1
    28    22    23    2
    29    22    24    1
    30    25    24   ar
    31    25    26   ar
    32    34    35    1
    33    24    29   ar
    34    32    31    1
    35    26    27   ar
    36    35    36    1
    37    31    36    1
    38    31    30    1
    39    29    28   ar
    40    27    28   ar
    41    27    30    1
