@<TRIPOS>MOLECULE
/Users/xuhangdai/Desktop/Projects/OptimalTransport/extra_bio_ligands_boltz_af3/boltz_results_4csv_imatinib/4csv_imatinib_model_17_chainB.pdb
 37 41 0 0 0
SMALL
GASTEIGER

@<TRIPOS>ATOM
      1  C62       -1.4390   13.8300    1.4890 C.3     0  LIG0        0.0324
      2  C56       -1.2090   12.6490    2.4170 C.ar    0  LIG0       -0.0057
      3  C49       -1.7600   12.6300    3.6750 C.ar    0  LIG0       -0.0016
      4  C47       -1.5520   11.5510    4.5240 C.ar    0  LIG0        0.0164
      5  C54       -0.7640   10.4730    4.1340 C.ar    0  LIG0        0.0750
      6  C48       -0.2070   10.4870    2.8790 C.ar    0  LIG0        0.0336
      7  C55       -0.4080   11.5580    2.0050 C.ar    0  LIG0        0.0790
      8  N59        0.1950   11.5550    0.7570 N.pl3   0  LIG0       -0.1464
      9  C37       -0.4030   11.0880   -0.3830 C.1     0  LIG0        0.1117
     10  N33       -1.6430   10.5680   -0.2830 N.2     0  LIG0       -0.2015
     11  C38       -2.2120   10.1340   -1.4570 C.3     0  LIG0        0.1653
     12  C42       -1.5160   10.2230   -2.6770 C.2     0  LIG0        0.0208
     13  C41       -0.2420   10.7830   -2.6810 C.2     0  LIG0        0.0916
     14  N35        0.3090   11.2160   -1.5230 N.2     0  LIG0       -0.1806
     15  C53        0.5720   10.9330   -3.9050 C.ar    0  LIG0        0.0374
     16  C46        0.1150   10.5270   -5.1520 C.ar    0  LIG0        0.0047
     17  C43        0.9110   10.6860   -6.2640 C.ar    0  LIG0        0.0207
     18  C39        2.1660   11.2480   -6.1200 C.ar    0  LIG0        0.0989
     19  N34        2.6250   11.6490   -4.9350 N.ar    0  LIG0       -0.2423
     20  C40        1.8400   11.4950   -3.8350 C.ar    0  LIG0        0.1003
     21  N58       -0.5780    9.4430    5.0780 N.am    0  LIG0       -0.1754
     22  C36        0.2700    8.3700    4.9770 C.2     0  LIG0        0.2690
     23  O32        0.8870    8.1390    3.9670 O.2     0  LIG0       -0.2680
     24  C52        0.4040    7.4820    6.1630 C.ar    0  LIG0        0.0554
     25  C44        1.3500    6.4440    6.1560 C.ar    0  LIG0        0.0043
     26  C50        1.5030    5.6010    7.2480 C.ar    0  LIG0       -0.0028
     27  C57        0.7190    5.7760    8.3860 C.ar    0  LIG0       -0.0061
     28  C51       -0.2150    6.8130    8.4010 C.ar    0  LIG0       -0.0028
     29  C45       -0.3670    7.6510    7.2980 C.ar    0  LIG0        0.0043
     30  C64        0.8750    4.8720    9.5660 C.3     0  LIG0        0.0992
     31  N61       -0.3800    4.2910    9.9890 N.3     0  LIG0       -0.2665
     32  C67       -0.9010    3.3760    8.9690 C.3     0  LIG0        0.0899
     33  C65       -2.2310    2.7790    9.4070 C.3     0  LIG0        0.0897
     34  N60       -2.0780    2.0740   10.6980 N.3     0  LIG0       -0.2691
     35  C66       -1.5460    2.9770   11.7190 C.3     0  LIG0        0.0897
     36  C68       -0.2060    3.5760   11.2590 C.3     0  LIG0        0.0899
     37  C63       -3.3710    1.5360   11.1340 C.3     0  LIG0        0.0897
@<TRIPOS>BOND
     1    17    18   ar
     2    17    16   ar
     3    18    19   ar
     4    16    15   ar
     5    19    20   ar
     6    15    20   ar
     7    15    13    1
     8    13    12    2
     9    13    14    1
    10    12    11    1
    11    14     9    2
    12    11    10    1
    13     9    10    2
    14     9     8    1
    15     8     7    1
    16     1     2    1
    17     7     2   ar
    18     7     6   ar
    19     2     3   ar
    20     6     5   ar
    21     3     4   ar
    22    23    22    2
    23     5     4   ar
    24     5    21    1
    25    22    21   am
    26    22    24    1
    27    25    24   ar
    28    25    26   ar
    29    24    29   ar
    30    26    27   ar
    31    29    28   ar
    32    27    28   ar
    33    27    30    1
    34    32    33    1
    35    32    31    1
    36    33    34    1
    37    30    31    1
    38    31    36    1
    39    34    37    1
    40    34    35    1
    41    36    35    1
