@<TRIPOS>MOLECULE
/Users/xuhangdai/Desktop/Projects/OptimalTransport/extra_bio_ligands_boltz_af3/boltz_results_4csv_imatinib/4csv_imatinib_model_24_chainB.pdb
 37 41 0 0 0
SMALL
GASTEIGER

@<TRIPOS>ATOM
      1  C62        3.5280    5.9400  -12.2680 C.3     0  LIG0        0.0324
      2  C56        2.6920    4.8610  -11.5920 C.ar    0  LIG0       -0.0057
      3  C49        2.2910    3.7460  -12.2900 C.ar    0  LIG0       -0.0016
      4  C47        1.5260    2.7610  -11.6750 C.ar    0  LIG0        0.0164
      5  C54        1.1260    2.8800  -10.3510 C.ar    0  LIG0        0.0750
      6  C48        1.5220    3.9980   -9.6480 C.ar    0  LIG0        0.0336
      7  C55        2.2970    5.0010  -10.2420 C.ar    0  LIG0        0.0790
      8  N59        2.6470    6.1340   -9.5160 N.pl3   0  LIG0       -0.1464
      9  C37        3.8420    6.3050   -8.8710 C.1     0  LIG0        0.1117
     10  N33        4.7410    5.3040   -8.9290 N.2     0  LIG0       -0.2015
     11  C38        5.9380    5.5280   -8.2810 C.3     0  LIG0        0.1653
     12  C42        6.1780    6.7370   -7.5960 C.2     0  LIG0        0.0208
     13  C41        5.1940    7.7170   -7.6040 C.2     0  LIG0        0.0916
     14  N35        4.0220    7.4880   -8.2460 N.2     0  LIG0       -0.1806
     15  C53        5.3460    9.0270   -6.9320 C.ar    0  LIG0        0.0374
     16  C46        6.4750    9.3540   -6.1890 C.ar    0  LIG0        0.0047
     17  C43        6.5700   10.5870   -5.5780 C.ar    0  LIG0        0.0207
     18  C39        5.5300   11.4850   -5.7060 C.ar    0  LIG0        0.0989
     19  N34        4.4350   11.1930   -6.4120 N.ar    0  LIG0       -0.2423
     20  C40        4.3390    9.9800   -7.0200 C.ar    0  LIG0        0.1003
     21  N58        0.3120    1.8400   -9.8360 N.am    0  LIG0       -0.1754
     22  C36       -0.3390    1.8020   -8.6250 C.2     0  LIG0        0.2690
     23  O32       -0.1640    2.6610   -7.7970 O.2     0  LIG0       -0.2680
     24  C52       -1.2720    0.6670   -8.3430 C.ar    0  LIG0        0.0554
     25  C44       -2.0600    0.6800   -7.1750 C.ar    0  LIG0        0.0043
     26  C50       -2.9460   -0.3570   -6.8850 C.ar    0  LIG0       -0.0028
     27  C57       -3.0850   -1.4360   -7.7550 C.ar    0  LIG0       -0.0061
     28  C51       -2.3110   -1.4470   -8.9190 C.ar    0  LIG0       -0.0028
     29  C45       -1.4210   -0.4060   -9.2010 C.ar    0  LIG0        0.0043
     30  C64       -4.0420   -2.5500   -7.4440 C.3     0  LIG0        0.0992
     31  N61       -3.4530   -3.8670   -7.5720 N.3     0  LIG0       -0.2665
     32  C67       -2.4250   -4.0820   -6.5480 C.3     0  LIG0        0.0899
     33  C65       -1.7790   -5.4520   -6.7130 C.3     0  LIG0        0.0897
     34  N60       -2.8010   -6.5150   -6.6270 N.3     0  LIG0       -0.2691
     35  C66       -3.8480   -6.3020   -7.6250 C.3     0  LIG0        0.0897
     36  C68       -4.4830   -4.9100   -7.4570 C.3     0  LIG0        0.0899
     37  C63       -2.1730   -7.8280   -6.8220 C.3     0  LIG0        0.0897
@<TRIPOS>BOND
     1     3     4   ar
     2     3     2   ar
     3     1     2    1
     4     4     5   ar
     5     2     7   ar
     6     5    21    1
     7     5     6   ar
     8     7     6   ar
     9     7     8    1
    10    21    22   am
    11     8     9    1
    12    29    28   ar
    13    29    24   ar
    14    10     9    2
    15    10    11    1
    16    28    27   ar
    17     9    14    2
    18    22    24    1
    19    22    23    2
    20    24    25   ar
    21    11    12    1
    22    14    13    1
    23    27    30    1
    24    27    26   ar
    25    35    36    1
    26    35    34    1
    27    13    12    2
    28    13    15    1
    29    31    36    1
    30    31    30    1
    31    31    32    1
    32    25    26   ar
    33    20    15   ar
    34    20    19   ar
    35    15    16   ar
    36    37    34    1
    37    33    34    1
    38    33    32    1
    39    19    18   ar
    40    16    17   ar
    41    18    17   ar
