@<TRIPOS>MOLECULE
/Users/xuhangdai/Desktop/Projects/OptimalTransport/extra_bio_ligands_boltz_af3/boltz_results_4csv_imatinib/4csv_imatinib_model_18_chainB.pdb
 37 41 0 0 0
SMALL
GASTEIGER

@<TRIPOS>ATOM
      1  C62        3.4260  -12.0810    4.0890 C.3     0  LIG0        0.0324
      2  C56        3.1240  -10.6800    4.5930 C.ar    0  LIG0       -0.0057
      3  C49        3.7820  -10.1750    5.6810 C.ar    0  LIG0       -0.0016
      4  C47        3.5070   -8.9000    6.1450 C.ar    0  LIG0        0.0164
      5  C54        2.5500   -8.1100    5.5400 C.ar    0  LIG0        0.0750
      6  C48        1.8810   -8.6050    4.4460 C.ar    0  LIG0        0.0336
      7  C55        2.1460   -9.8870    3.9620 C.ar    0  LIG0        0.0790
      8  N59        1.4270  -10.3820    2.8910 N.pl3   0  LIG0       -0.1464
      9  C37        1.7900  -10.2390    1.5830 C.1     0  LIG0        0.1117
     10  N33        2.8880   -9.5170    1.3090 N.2     0  LIG0       -0.2015
     11  C38        3.2310   -9.4230   -0.0170 C.3     0  LIG0        0.1653
     12  C42        2.4540  -10.0360   -1.0130 C.2     0  LIG0        0.0208
     13  C41        1.3380  -10.7650   -0.6320 C.2     0  LIG0        0.0916
     14  N35        1.0110  -10.8620    0.6770 N.2     0  LIG0       -0.1806
     15  C53        0.4610  -11.4550   -1.5970 C.ar    0  LIG0        0.0374
     16  C46        0.7150  -11.4540   -2.9620 C.ar    0  LIG0        0.0047
     17  C43       -0.1350  -12.1050   -3.8240 C.ar    0  LIG0        0.0207
     18  C39       -1.2430  -12.7470   -3.3180 C.ar    0  LIG0        0.0989
     19  N34       -1.5090  -12.7620   -2.0160 N.ar    0  LIG0       -0.2423
     20  C40       -0.6730  -12.1230   -1.1610 C.ar    0  LIG0        0.1003
     21  N58        2.3110   -6.8520    6.1170 N.am    0  LIG0       -0.1754
     22  C36        1.3060   -5.9790    5.8130 C.2     0  LIG0        0.2690
     23  O32        0.5700   -6.1700    4.8810 O.2     0  LIG0       -0.2680
     24  C52        1.1420   -4.7710    6.6640 C.ar    0  LIG0        0.0554
     25  C44        0.0480   -3.9170    6.4510 C.ar    0  LIG0        0.0043
     26  C50       -0.1400   -2.7860    7.2330 C.ar    0  LIG0       -0.0028
     27  C57        0.7500   -2.4820    8.2550 C.ar    0  LIG0       -0.0061
     28  C51        1.8270   -3.3330    8.4700 C.ar    0  LIG0       -0.0028
     29  C45        2.0120   -4.4630    7.6810 C.ar    0  LIG0        0.0043
     30  C64        0.5490   -1.2680    9.0930 C.3     0  LIG0        0.0992
     31  N61        1.7220   -0.4250    9.1380 N.3     0  LIG0       -0.2665
     32  C67        2.0200    0.1180    7.8120 C.3     0  LIG0        0.0899
     33  C65        3.2630    0.9910    7.8530 C.3     0  LIG0        0.0897
     34  N60        3.0910    2.0850    8.8230 N.3     0  LIG0       -0.2691
     35  C66        2.7760    1.5520   10.1460 C.3     0  LIG0        0.0897
     36  C68        1.5250    0.6670   10.0930 C.3     0  LIG0        0.0899
     37  C63        4.3060    2.9010    8.8830 C.3     0  LIG0        0.0897
@<TRIPOS>BOND
     1    17    18   ar
     2    17    16   ar
     3    18    19   ar
     4    16    15   ar
     5    19    20   ar
     6    15    20   ar
     7    15    13    1
     8    12    13    2
     9    12    11    1
    10    13    14    1
    11    11    10    1
    12    14     9    2
    13    10     9    2
    14     9     8    1
    15     8     7    1
    16     7     6   ar
    17     7     2   ar
    18     1     2    1
    19     6     5   ar
    20     2     3   ar
    21    23    22    2
    22     5    21    1
    23     5     4   ar
    24     3     4   ar
    25    22    21   am
    26    22    24    1
    27    25    24   ar
    28    25    26   ar
    29    24    29   ar
    30    26    27   ar
    31    29    28   ar
    32    32    33    1
    33    32    31    1
    34    33    34    1
    35    27    28   ar
    36    27    30    1
    37    34    37    1
    38    34    35    1
    39    30    31    1
    40    31    36    1
    41    36    35    1
