@<TRIPOS>MOLECULE
/Users/xuhangdai/Desktop/Projects/OptimalTransport/extra_bio_ligands_boltz_af3/boltz_results_4csv_imatinib/4csv_imatinib_model_10_chainB.pdb
 37 41 0 0 0
SMALL
GASTEIGER

@<TRIPOS>ATOM
      1  C62       -5.0070   -7.0930    9.0120 C.3     0  LIG0        0.0324
      2  C56       -5.2790   -5.7300    8.3930 C.ar    0  LIG0       -0.0057
      3  C49       -5.9990   -4.7860    9.0780 C.ar    0  LIG0       -0.0016
      4  C47       -6.2500   -3.5430    8.5160 C.ar    0  LIG0        0.0164
      5  C54       -5.7970   -3.2280    7.2400 C.ar    0  LIG0        0.0750
      6  C48       -5.0800   -4.1690    6.5480 C.ar    0  LIG0        0.0336
      7  C55       -4.8100   -5.4220    7.0950 C.ar    0  LIG0        0.0790
      8  N59       -4.1130   -6.3570    6.3520 N.pl3   0  LIG0       -0.1464
      9  C37       -2.7580   -6.5200    6.3940 C.1     0  LIG0        0.1117
     10  N33       -2.0470   -5.7120    7.2030 N.2     0  LIG0       -0.2015
     11  C38       -0.6870   -5.9350    7.2320 C.3     0  LIG0        0.1653
     12  C42       -0.1020   -6.9390    6.4400 C.2     0  LIG0        0.0208
     13  C41       -0.9230   -7.7240    5.6400 C.2     0  LIG0        0.0916
     14  N35       -2.2590   -7.5040    5.6240 N.2     0  LIG0       -0.1806
     15  C53       -0.4180   -8.8100    4.7770 C.ar    0  LIG0        0.0374
     16  C46        0.9340   -9.1250    4.6940 C.ar    0  LIG0        0.0047
     17  C43        1.3560  -10.1460    3.8720 C.ar    0  LIG0        0.0207
     18  C39        0.4250  -10.8420    3.1280 C.ar    0  LIG0        0.0989
     19  N34       -0.8790  -10.5590    3.1930 N.ar    0  LIG0       -0.2423
     20  C40       -1.3000   -9.5540    4.0040 C.ar    0  LIG0        0.1003
     21  N58       -6.1290   -1.9520    6.7390 N.am    0  LIG0       -0.1754
     22  C36       -5.9450   -1.4920    5.4620 C.2     0  LIG0        0.2690
     23  O32       -5.3510   -2.1320    4.6310 O.2     0  LIG0       -0.2680
     24  C52       -6.4970   -0.1550    5.1250 C.ar    0  LIG0        0.0554
     25  C44       -6.4150    0.3260    3.8080 C.ar    0  LIG0        0.0043
     26  C50       -6.9290    1.5680    3.4660 C.ar    0  LIG0       -0.0028
     27  C57       -7.5450    2.3620    4.4270 C.ar    0  LIG0       -0.0061
     28  C51       -7.6330    1.8830    5.7320 C.ar    0  LIG0       -0.0028
     29  C45       -7.1130    0.6370    6.0710 C.ar    0  LIG0        0.0043
     30  C64       -8.0960    3.6990    4.0650 C.3     0  LIG0        0.0992
     31  N61       -7.6250    4.7470    4.9460 N.3     0  LIG0       -0.2665
     32  C67       -6.1830    4.9450    4.7850 C.3     0  LIG0        0.0899
     33  C65       -5.6850    6.0410    5.7120 C.3     0  LIG0        0.0897
     34  N60       -6.4150    7.2960    5.4530 N.3     0  LIG0       -0.2691
     35  C66       -7.8510    7.1010    5.6090 C.3     0  LIG0        0.0897
     36  C68       -8.3460    5.9920    4.6680 C.3     0  LIG0        0.0899
     37  C63       -5.9500    8.3470    6.3610 C.3     0  LIG0        0.0897
@<TRIPOS>BOND
     1    18    19   ar
     2    18    17   ar
     3    19    20   ar
     4    26    25   ar
     5    26    27   ar
     6    25    24   ar
     7    17    16   ar
     8    20    15   ar
     9    30    27    1
    10    30    31    1
    11    27    28   ar
    12    23    22    2
    13    36    31    1
    14    36    35    1
    15    16    15   ar
    16    15    13    1
    17    32    31    1
    18    32    33    1
    19    24    22    1
    20    24    29   ar
    21    34    35    1
    22    34    33    1
    23    34    37    1
    24    22    21   am
    25    14    13    1
    26    14     9    2
    27    13    12    2
    28    28    29   ar
    29     8     9    1
    30     8     7    1
    31     9    10    2
    32    12    11    1
    33     6     7   ar
    34     6     5   ar
    35    21     5    1
    36     7     2   ar
    37    10    11    1
    38     5     4   ar
    39     2     1    1
    40     2     3   ar
    41     4     3   ar
