@<TRIPOS>MOLECULE
/Users/xuhangdai/Desktop/Projects/OptimalTransport/extra_bio_ligands_boltz_af3/boltz_results_4csv_imatinib/4csv_imatinib_model_32_chainB.pdb
 37 41 0 0 0
SMALL
GASTEIGER

@<TRIPOS>ATOM
      1  C62      -10.4480    7.2660    3.4050 C.3     0  LIG0        0.0324
      2  C56       -9.1740    6.6710    3.9820 C.ar    0  LIG0       -0.0057
      3  C49       -9.0910    6.3600    5.3100 C.ar    0  LIG0       -0.0016
      4  C47       -7.9310    5.8170    5.8410 C.ar    0  LIG0        0.0164
      5  C54       -6.8150    5.5940    5.0480 C.ar    0  LIG0        0.0750
      6  C48       -6.8880    5.9060    3.7150 C.ar    0  LIG0        0.0336
      7  C55       -8.0490    6.4480    3.1620 C.ar    0  LIG0        0.0790
      8  N59       -8.0840    6.7860    1.8250 N.pl3   0  LIG0       -0.1464
      9  C37       -8.4940    5.9420    0.8400 C.1     0  LIG0        0.1117
     10  N33       -8.8320    4.6850    1.1790 N.2     0  LIG0       -0.2015
     11  C38       -9.2590    3.8810    0.1520 C.3     0  LIG0        0.1653
     12  C42       -9.3170    4.3550   -1.1660 C.2     0  LIG0        0.0208
     13  C41       -8.9560    5.6710   -1.4130 C.2     0  LIG0        0.0916
     14  N35       -8.5440    6.4600   -0.3970 N.2     0  LIG0       -0.1806
     15  C53       -8.9850    6.2810   -2.7520 C.ar    0  LIG0        0.0374
     16  C46       -9.3970    5.5790   -3.8740 C.ar    0  LIG0        0.0047
     17  C43       -9.4050    6.1910   -5.1030 C.ar    0  LIG0        0.0207
     18  C39       -8.9940    7.5040   -5.2040 C.ar    0  LIG0        0.0989
     19  N34       -8.6010    8.2000   -4.1360 N.ar    0  LIG0       -0.2423
     20  C40       -8.5960    7.5980   -2.9230 C.ar    0  LIG0        0.1003
     21  N58       -5.6660    5.0770    5.6850 N.am    0  LIG0       -0.1754
     22  C36       -4.4110    4.9510    5.1580 C.2     0  LIG0        0.2690
     23  O32       -4.1870    5.1880    3.9980 O.2     0  LIG0       -0.2680
     24  C52       -3.3100    4.5040    6.0550 C.ar    0  LIG0        0.0554
     25  C44       -2.0000    4.4270    5.5630 C.ar    0  LIG0        0.0043
     26  C50       -0.9470    4.0220    6.3720 C.ar    0  LIG0       -0.0028
     27  C57       -1.1720    3.6900    7.6990 C.ar    0  LIG0       -0.0061
     28  C51       -2.4710    3.7740    8.1940 C.ar    0  LIG0       -0.0028
     29  C45       -3.5230    4.1780    7.3780 C.ar    0  LIG0        0.0043
     30  C64       -0.0440    3.2560    8.5690 C.3     0  LIG0        0.0992
     31  N61       -0.2820    1.9770    9.1930 N.3     0  LIG0       -0.2665
     32  C67       -0.3520    0.9150    8.1860 C.3     0  LIG0        0.0899
     33  C65       -0.6130   -0.4310    8.8410 C.3     0  LIG0        0.0897
     34  N60        0.4300   -0.7340    9.8400 N.3     0  LIG0       -0.2691
     35  C66        0.5140    0.3280   10.8370 C.3     0  LIG0        0.0897
     36  C68        0.7730    1.6850   10.1610 C.3     0  LIG0        0.0899
     37  C63        0.1480   -2.0130   10.4990 C.3     0  LIG0        0.0897
@<TRIPOS>BOND
     1    18    17   ar
     2    18    19   ar
     3    17    16   ar
     4    19    20   ar
     5    16    15   ar
     6    20    15   ar
     7    15    13    1
     8    13    12    2
     9    13    14    1
    10    12    11    1
    11    14     9    2
    12    11    10    1
    13     9    10    2
    14     9     8    1
    15     8     7    1
    16     7     6   ar
    17     7     2   ar
    18     1     2    1
    19     6     5   ar
    20     2     3   ar
    21    23    22    2
    22     5    21    1
    23     5     4   ar
    24    22    21   am
    25    22    24    1
    26     3     4   ar
    27    25    24   ar
    28    25    26   ar
    29    24    29   ar
    30    26    27   ar
    31    29    28   ar
    32    27    28   ar
    33    27    30    1
    34    32    33    1
    35    32    31    1
    36    30    31    1
    37    33    34    1
    38    31    36    1
    39    34    37    1
    40    34    35    1
    41    36    35    1
