@<TRIPOS>MOLECULE
/Users/xuhangdai/Desktop/Projects/OptimalTransport/extra_bio_ligands_boltz_af3/boltz_results_4csv_imatinib/4csv_imatinib_model_30_chainB.pdb
 37 41 0 0 0
SMALL
GASTEIGER

@<TRIPOS>ATOM
      1  C62        1.0140   12.0290    3.5410 C.3     0  LIG0        0.0324
      2  C56        0.2080   10.7540    3.7330 C.ar    0  LIG0       -0.0057
      3  C49       -1.0650   10.8050    4.2500 C.ar    0  LIG0       -0.0016
      4  C47       -1.8060    9.6440    4.4290 C.ar    0  LIG0        0.0164
      5  C54       -1.2780    8.3980    4.1140 C.ar    0  LIG0        0.0750
      6  C48       -0.0030    8.3370    3.5970 C.ar    0  LIG0        0.0336
      7  C55        0.7600    9.4940    3.4010 C.ar    0  LIG0        0.0790
      8  N59        2.0550    9.3990    2.9120 N.pl3   0  LIG0       -0.1464
      9  C37        2.3960    9.4690    1.5830 C.1     0  LIG0        0.1117
     10  N33        1.4050    9.5920    0.6780 N.2     0  LIG0       -0.2015
     11  C38        1.8010    9.6800   -0.6410 C.3     0  LIG0        0.1653
     12  C42        3.1630    9.6200   -0.9970 C.2     0  LIG0        0.0208
     13  C41        4.1150    9.4980    0.0120 C.2     0  LIG0        0.0916
     14  N35        3.7160    9.4220    1.3060 N.2     0  LIG0       -0.1806
     15  C53        5.5700    9.4340   -0.2460 C.ar    0  LIG0        0.0374
     16  C46        6.1000    9.4940   -1.5310 C.ar    0  LIG0        0.0047
     17  C43        7.4640    9.4260   -1.7190 C.ar    0  LIG0        0.0207
     18  C39        8.2920    9.2900   -0.6230 C.ar    0  LIG0        0.0989
     19  N34        7.8060    9.2310    0.6210 N.ar    0  LIG0       -0.2423
     20  C40        6.4620    9.3010    0.8120 C.ar    0  LIG0        0.1003
     21  N58       -2.0980    7.2740    4.3680 N.am    0  LIG0       -0.1754
     22  C36       -1.7460    5.9520    4.3000 C.2     0  LIG0        0.2690
     23  O32       -0.6670    5.6080    3.8820 O.2     0  LIG0       -0.2680
     24  C52       -2.7380    4.9360    4.7580 C.ar    0  LIG0        0.0554
     25  C44       -2.3610    3.5840    4.8620 C.ar    0  LIG0        0.0043
     26  C50       -3.2570    2.6160    5.3010 C.ar    0  LIG0       -0.0028
     27  C57       -4.5570    2.9680    5.6570 C.ar    0  LIG0       -0.0061
     28  C51       -4.9340    4.3080    5.5590 C.ar    0  LIG0       -0.0028
     29  C45       -4.0310    5.2750    5.1160 C.ar    0  LIG0        0.0043
     30  C64       -5.5240    1.9300    6.1360 C.3     0  LIG0        0.0992
     31  N61       -6.7690    1.9240    5.3940 N.3     0  LIG0       -0.2665
     32  C67       -6.5570    1.4940    4.0090 C.3     0  LIG0        0.0899
     33  C65       -7.8660    1.4960    3.2310 C.3     0  LIG0        0.0897
     34  N60       -8.8590    0.6240    3.8950 N.3     0  LIG0       -0.2691
     35  C66       -9.0750    1.0480    5.2770 C.3     0  LIG0        0.0897
     36  C68       -7.7460    1.0480    6.0570 C.3     0  LIG0        0.0899
     37  C63      -10.1270    0.6480    3.1540 C.3     0  LIG0        0.0897
@<TRIPOS>BOND
     1    17    16   ar
     2    17    18   ar
     3    16    15   ar
     4    12    11    1
     5    12    13    2
     6    11    10    1
     7    18    19   ar
     8    15    13    1
     9    15    20   ar
    10    13    14    1
    11    19    20   ar
    12    10     9    2
    13    14     9    2
    14     9     8    1
    15     8     7    1
    16    37    34    1
    17    33    34    1
    18    33    32    1
    19     7     6   ar
    20     7     2   ar
    21     1     2    1
    22     6     5   ar
    23     2     3   ar
    24    23    22    2
    25    34    35    1
    26    32    31    1
    27     5    21    1
    28     5     4   ar
    29     3     4   ar
    30    22    21   am
    31    22    24    1
    32    24    25   ar
    33    24    29   ar
    34    25    26   ar
    35    29    28   ar
    36    35    36    1
    37    26    27   ar
    38    31    36    1
    39    31    30    1
    40    28    27   ar
    41    27    30    1
