@<TRIPOS>MOLECULE
/Users/xuhangdai/Desktop/Projects/OptimalTransport/extra_bio_ligands_boltz_af3/boltz_results_4csv_imatinib/4csv_imatinib_model_47_chainB.pdb
 37 41 0 0 0
SMALL
GASTEIGER

@<TRIPOS>ATOM
      1  C62       -8.9410   -7.6530   -5.2520 C.3     0  LIG0        0.0324
      2  C56       -8.0090   -7.5920   -4.0550 C.ar    0  LIG0       -0.0057
      3  C49       -7.5070   -8.7440   -3.5020 C.ar    0  LIG0       -0.0016
      4  C47       -6.6570   -8.6920   -2.4090 C.ar    0  LIG0        0.0164
      5  C54       -6.3050   -7.4850   -1.8300 C.ar    0  LIG0        0.0750
      6  C48       -6.8070   -6.3230   -2.3720 C.ar    0  LIG0        0.0336
      7  C55       -7.6610   -6.3450   -3.4800 C.ar    0  LIG0        0.0790
      8  N59       -8.1800   -5.1570   -3.9830 N.pl3   0  LIG0       -0.1464
      9  C37       -7.6710   -4.4660   -5.0510 C.1     0  LIG0        0.1117
     10  N33       -6.5590   -4.9470   -5.6360 N.2     0  LIG0       -0.2015
     11  C38       -6.0930   -4.2420   -6.7200 C.3     0  LIG0        0.1653
     12  C42       -6.7480   -3.0770   -7.1680 C.2     0  LIG0        0.0208
     13  C41       -7.8970   -2.6560   -6.5090 C.2     0  LIG0        0.0916
     14  N35       -8.3520   -3.3620   -5.4440 N.2     0  LIG0       -0.1806
     15  C53       -8.6620   -1.4540   -6.9080 C.ar    0  LIG0        0.0374
     16  C46       -8.2670   -0.6410   -7.9640 C.ar    0  LIG0        0.0047
     17  C43       -9.0100    0.4690   -8.2990 C.ar    0  LIG0        0.0207
     18  C39      -10.1460    0.7670   -7.5720 C.ar    0  LIG0        0.0989
     19  N34      -10.5460    0.0020   -6.5560 N.ar    0  LIG0       -0.2423
     20  C40       -9.8170   -1.0990   -6.2240 C.ar    0  LIG0        0.1003
     21  N58       -5.4660   -7.5470   -0.6940 N.am    0  LIG0       -0.1754
     22  C36       -5.1410   -6.5260    0.1570 C.2     0  LIG0        0.2690
     23  O32       -5.4670   -5.3880   -0.0720 O.2     0  LIG0       -0.2680
     24  C52       -4.3580   -6.8520    1.3830 C.ar    0  LIG0        0.0554
     25  C44       -4.1110   -5.8600    2.3430 C.ar    0  LIG0        0.0043
     26  C50       -3.3920   -6.1350    3.5020 C.ar    0  LIG0       -0.0028
     27  C57       -2.9050   -7.4120    3.7410 C.ar    0  LIG0       -0.0061
     28  C51       -3.1540   -8.4020    2.7930 C.ar    0  LIG0       -0.0028
     29  C45       -3.8740   -8.1200    1.6330 C.ar    0  LIG0        0.0043
     30  C64       -2.1300   -7.7090    4.9890 C.3     0  LIG0        0.0992
     31  N61       -0.8740   -8.3820    4.7310 N.3     0  LIG0       -0.2665
     32  C67        0.0240   -7.5150    3.9650 C.3     0  LIG0        0.0899
     33  C65        1.3300   -8.2330    3.6630 C.3     0  LIG0        0.0897
     34  N60        1.9860   -8.6580    4.9140 N.3     0  LIG0       -0.2691
     35  C66        1.0930   -9.5040    5.6980 C.3     0  LIG0        0.0897
     36  C68       -0.2260   -8.7710    5.9900 C.3     0  LIG0        0.0899
     37  C63        3.2220   -9.3860    4.6090 C.3     0  LIG0        0.0897
@<TRIPOS>BOND
     1    17    16   ar
     2    17    18   ar
     3    16    15   ar
     4    18    19   ar
     5    12    11    1
     6    12    13    2
     7    15    13    1
     8    15    20   ar
     9    11    10    1
    10    19    20   ar
    11    13    14    1
    12    10     9    2
    13    14     9    2
    14     1     2    1
    15     9     8    1
    16     2     3   ar
    17     2     7   ar
    18     8     7    1
    19     3     4   ar
    20     7     6   ar
    21     4     5   ar
    22     6     5   ar
    23     5    21    1
    24    21    22   am
    25    23    22    2
    26    22    24    1
    27    24    29   ar
    28    24    25   ar
    29    29    28   ar
    30    25    26   ar
    31    28    27   ar
    32    26    27   ar
    33    33    32    1
    34    33    34    1
    35    27    30    1
    36    32    31    1
    37    37    34    1
    38    31    30    1
    39    31    36    1
    40    34    35    1
    41    35    36    1
