@<TRIPOS>MOLECULE
/Users/xuhangdai/Desktop/Projects/OptimalTransport/extra_bio_ligands_boltz_af3/boltz_results_4csv_imatinib/4csv_imatinib_model_19_chainB.pdb
 37 41 0 0 0
SMALL
GASTEIGER

@<TRIPOS>ATOM
      1  C62       12.9320   -2.1340    3.5540 C.3     0  LIG0        0.0324
      2  C56       11.6040   -1.4790    3.9070 C.ar    0  LIG0       -0.0057
      3  C49       11.5640   -0.2140    4.4440 C.ar    0  LIG0       -0.0016
      4  C47       10.3510    0.3850    4.7670 C.ar    0  LIG0        0.0164
      5  C54        9.1490   -0.2800    4.5800 C.ar    0  LIG0        0.0750
      6  C48        9.1800   -1.5530    4.0430 C.ar    0  LIG0        0.0336
      7  C55       10.3920   -2.1730    3.7050 C.ar    0  LIG0        0.0790
      8  N59       10.3960   -3.4680    3.2030 N.pl3   0  LIG0       -0.1464
      9  C37       10.4460   -3.7850    1.8680 C.1     0  LIG0        0.1117
     10  N33       10.4540   -2.7790    0.9720 N.2     0  LIG0       -0.2015
     11  C38       10.5290   -3.1450   -0.3540 C.3     0  LIG0        0.1653
     12  C42       10.5780   -4.4980   -0.7300 C.2     0  LIG0        0.0208
     13  C41       10.5750   -5.4670    0.2650 C.2     0  LIG0        0.0916
     14  N35       10.5060   -5.0990    1.5670 N.2     0  LIG0       -0.1806
     15  C53       10.6430   -6.9150   -0.0150 C.ar    0  LIG0        0.0374
     16  C46       10.7010   -7.4210   -1.3080 C.ar    0  LIG0        0.0047
     17  C43       10.7650   -8.7820   -1.5160 C.ar    0  LIG0        0.0207
     18  C39       10.7630   -9.6290   -0.4300 C.ar    0  LIG0        0.0989
     19  N34       10.7060   -9.1680    0.8210 N.ar    0  LIG0       -0.2423
     20  C40       10.6480   -7.8300    1.0320 C.ar    0  LIG0        0.1003
     21  N58        7.9730    0.3980    4.9810 N.am    0  LIG0       -0.1754
     22  C36        6.6970   -0.1130    5.0640 C.2     0  LIG0        0.2690
     23  O32        6.4360   -1.2200    4.6640 O.2     0  LIG0       -0.2680
     24  C52        5.6240    0.7380    5.6610 C.ar    0  LIG0        0.0554
     25  C44        4.3370    0.2010    5.8650 C.ar    0  LIG0        0.0043
     26  C50        3.3140    0.9590    6.4300 C.ar    0  LIG0       -0.0028
     27  C57        3.5430    2.2760    6.8190 C.ar    0  LIG0       -0.0061
     28  C51        4.8180    2.8090    6.6210 C.ar    0  LIG0       -0.0028
     29  C45        5.8390    2.0440    6.0530 C.ar    0  LIG0        0.0043
     30  C64        2.4450    3.0910    7.4340 C.3     0  LIG0        0.0992
     31  N61        2.2110    4.3420    6.7470 N.3     0  LIG0       -0.2665
     32  C67        1.7120    4.1160    5.3880 C.3     0  LIG0        0.0899
     33  C65        1.4910    5.4420    4.6660 C.3     0  LIG0        0.0897
     34  N60        0.5470    6.2920    5.4200 N.3     0  LIG0       -0.2691
     35  C66        1.0280    6.5100    6.7860 C.3     0  LIG0        0.0897
     36  C68        1.2540    5.1660    7.5020 C.3     0  LIG0        0.0899
     37  C63        0.3670    7.5820    4.7380 C.3     0  LIG0        0.0897
@<TRIPOS>BOND
     1    17    16   ar
     2    17    18   ar
     3    16    15   ar
     4    12    11    1
     5    12    13    2
     6    18    19   ar
     7    11    10    1
     8    15    13    1
     9    15    20   ar
    10    13    14    1
    11    19    20   ar
    12    10     9    2
    13    14     9    2
    14     9     8    1
    15     8     7    1
    16     1     2    1
    17     7     2   ar
    18     7     6   ar
    19     2     3   ar
    20     6     5   ar
    21     3     4   ar
    22     5     4   ar
    23     5    21    1
    24    23    22    2
    25    33    32    1
    26    33    34    1
    27    37    34    1
    28    21    22   am
    29    22    24    1
    30    32    31    1
    31    34    35    1
    32    24    25   ar
    33    24    29   ar
    34    25    26   ar
    35    29    28   ar
    36    26    27   ar
    37    28    27   ar
    38    31    30    1
    39    31    36    1
    40    35    36    1
    41    27    30    1
