@<TRIPOS>MOLECULE
/Users/xuhangdai/Desktop/Projects/OptimalTransport/extra_bio_ligands_boltz_af3/boltz_results_4csv_imatinib/4csv_imatinib_model_34_chainB.pdb
 37 41 0 0 0
SMALL
GASTEIGER

@<TRIPOS>ATOM
      1  C62       -5.2320   -9.8080   -8.1330 C.3     0  LIG0        0.0324
      2  C56       -5.4040   -9.4050   -6.6750 C.ar    0  LIG0       -0.0057
      3  C49       -5.6530  -10.3530   -5.7150 C.ar    0  LIG0       -0.0016
      4  C47       -5.8110   -9.9930   -4.3830 C.ar    0  LIG0        0.0164
      5  C54       -5.7450   -8.6680   -3.9900 C.ar    0  LIG0        0.0750
      6  C48       -5.5000   -7.7070   -4.9450 C.ar    0  LIG0        0.0336
      7  C55       -5.3320   -8.0470   -6.2920 C.ar    0  LIG0        0.0790
      8  N59       -5.1250   -7.0560   -7.2450 N.pl3   0  LIG0       -0.1464
      9  C37       -3.8910   -6.6410   -7.6670 C.1     0  LIG0        0.1117
     10  N33       -2.8120   -7.1630   -7.0570 N.2     0  LIG0       -0.2015
     11  C38       -1.5890   -6.7420   -7.5310 C.3     0  LIG0        0.1653
     12  C42       -1.4960   -5.8090   -8.5790 C.2     0  LIG0        0.0208
     13  C41       -2.6670   -5.3320   -9.1510 C.2     0  LIG0        0.0916
     14  N35       -3.8680   -5.7540   -8.6840 N.2     0  LIG0       -0.1806
     15  C53       -2.6830   -4.3620  -10.2620 C.ar    0  LIG0        0.0374
     16  C46       -1.5120   -3.8830  -10.8420 C.ar    0  LIG0        0.0047
     17  C43       -1.5750   -2.9750  -11.8760 C.ar    0  LIG0        0.0207
     18  C39       -2.8070   -2.5440  -12.3230 C.ar    0  LIG0        0.0989
     19  N34       -3.9440   -2.9920  -11.7820 N.ar    0  LIG0       -0.2423
     20  C40       -3.8880   -3.8880  -10.7620 C.ar    0  LIG0        0.1003
     21  N58       -5.9650   -8.4010   -2.6210 N.am    0  LIG0       -0.1754
     22  C36       -6.1020   -7.1750   -2.0310 C.2     0  LIG0        0.2690
     23  O32       -5.9110   -6.1590   -2.6490 O.2     0  LIG0       -0.2680
     24  C52       -6.4880   -7.1190   -0.5940 C.ar    0  LIG0        0.0554
     25  C44       -6.7340   -5.8760    0.0120 C.ar    0  LIG0        0.0043
     26  C50       -7.0990   -5.7870    1.3500 C.ar    0  LIG0       -0.0028
     27  C57       -7.2430   -6.9400    2.1160 C.ar    0  LIG0       -0.0061
     28  C51       -7.0090   -8.1750    1.5170 C.ar    0  LIG0       -0.0028
     29  C45       -6.6390   -8.2580    0.1770 C.ar    0  LIG0        0.0043
     30  C64       -7.6340   -6.8520    3.5540 C.3     0  LIG0        0.0992
     31  N61       -6.7100   -7.5550    4.4170 N.3     0  LIG0       -0.2665
     32  C67       -5.3860   -6.9260    4.3780 C.3     0  LIG0        0.0899
     33  C65       -4.4030   -7.6870    5.2540 C.3     0  LIG0        0.0897
     34  N60       -4.9000   -7.7460    6.6470 N.3     0  LIG0       -0.2691
     35  C66       -6.2260   -8.3610    6.6940 C.3     0  LIG0        0.0897
     36  C68       -7.2080   -7.5850    5.7980 C.3     0  LIG0        0.0899
     37  C63       -3.9620   -8.5090    7.4790 C.3     0  LIG0        0.0897
@<TRIPOS>BOND
     1    18    17   ar
     2    18    19   ar
     3    17    16   ar
     4    19    20   ar
     5    16    15   ar
     6    20    15   ar
     7    15    13    1
     8    13    14    1
     9    13    12    2
    10    14     9    2
    11    12    11    1
    12     1     2    1
    13     9     8    1
    14     9    10    2
    15    11    10    1
    16     8     7    1
    17     2     7   ar
    18     2     3   ar
    19     7     6   ar
    20     3     4   ar
    21     6     5   ar
    22     4     5   ar
    23     5    21    1
    24    23    22    2
    25    21    22   am
    26    22    24    1
    27    24    25   ar
    28    24    29   ar
    29    25    26   ar
    30    29    28   ar
    31    26    27   ar
    32    28    27   ar
    33    27    30    1
    34    30    31    1
    35    32    31    1
    36    32    33    1
    37    31    36    1
    38    33    34    1
    39    36    35    1
    40    34    35    1
    41    34    37    1
