@<TRIPOS>MOLECULE
/Users/xuhangdai/Desktop/Projects/OptimalTransport/extra_bio_ligands_boltz_af3/boltz_results_4csv_imatinib/4csv_imatinib_model_4_chainB.pdb
 37 41 0 0 0
SMALL
GASTEIGER

@<TRIPOS>ATOM
      1  C62      -10.8170   -6.8590    4.7700 C.3     0  LIG0        0.0324
      2  C56      -10.1090   -6.4660    3.4810 C.ar    0  LIG0       -0.0057
      3  C49      -10.7540   -6.5610    2.2730 C.ar    0  LIG0       -0.0016
      4  C47      -10.1120   -6.2050    1.0960 C.ar    0  LIG0        0.0164
      5  C54       -8.7930   -5.7660    1.1020 C.ar    0  LIG0        0.0750
      6  C48       -8.1370   -5.6680    2.3070 C.ar    0  LIG0        0.0336
      7  C55       -8.7690   -6.0160    3.5060 C.ar    0  LIG0        0.0790
      8  N59       -8.0730   -5.9390    4.7040 N.pl3   0  LIG0       -0.1464
      9  C37       -8.0860   -4.8420    5.5220 C.1     0  LIG0        0.1117
     10  N33       -8.7800   -3.7590    5.1140 N.2     0  LIG0       -0.2015
     11  C38       -8.7870   -2.6880    5.9740 C.3     0  LIG0        0.1653
     12  C42       -8.0920   -2.7360    7.1970 C.2     0  LIG0        0.0208
     13  C41       -7.4130   -3.9000    7.5340 C.2     0  LIG0        0.0916
     14  N35       -7.4150   -4.9540    6.6860 N.2     0  LIG0       -0.1806
     15  C53       -6.6640   -4.0570    8.7930 C.ar    0  LIG0        0.0374
     16  C46       -6.5930   -3.0430    9.7410 C.ar    0  LIG0        0.0047
     17  C43       -5.8780   -3.2330   10.9010 C.ar    0  LIG0        0.0207
     18  C39       -5.2360   -4.4340   11.1070 C.ar    0  LIG0        0.0989
     19  N34       -5.2920   -5.4240   10.2120 N.ar    0  LIG0       -0.2423
     20  C40       -5.9970   -5.2410    9.0680 C.ar    0  LIG0        0.1003
     21  N58       -8.2140   -5.4710   -0.1530 N.am    0  LIG0       -0.1754
     22  C36       -6.9020   -5.1700   -0.4160 C.2     0  LIG0        0.2690
     23  O32       -6.1020   -5.0010    0.4730 O.2     0  LIG0       -0.2680
     24  C52       -6.4760   -5.0490   -1.8390 C.ar    0  LIG0        0.0554
     25  C44       -5.1100   -4.9160   -2.1500 C.ar    0  LIG0        0.0043
     26  C50       -4.6720   -4.8120   -3.4660 C.ar    0  LIG0       -0.0028
     27  C57       -5.5810   -4.8520   -4.5160 C.ar    0  LIG0       -0.0061
     28  C51       -6.9370   -4.9860   -4.2110 C.ar    0  LIG0       -0.0028
     29  C45       -7.3700   -5.0870   -2.8880 C.ar    0  LIG0        0.0043
     30  C64       -5.1050   -4.7550   -5.9320 C.3     0  LIG0        0.0992
     31  N61       -5.8600   -3.8080   -6.7250 N.3     0  LIG0       -0.2665
     32  C67       -5.6100   -2.4380   -6.2750 C.3     0  LIG0        0.0899
     33  C65       -6.4070   -1.4410   -7.1080 C.3     0  LIG0        0.0897
     34  N60       -6.0770   -1.5840   -8.5410 N.3     0  LIG0       -0.2691
     35  C66       -6.3120   -2.9530   -8.9940 C.3     0  LIG0        0.0897
     36  C68       -5.5040   -3.9470   -8.1460 C.3     0  LIG0        0.0899
     37  C63       -6.8740   -0.6430   -9.3360 C.3     0  LIG0        0.0897
@<TRIPOS>BOND
     1    37    34    1
     2    35    34    1
     3    35    36    1
     4    34    33    1
     5    36    31    1
     6    33    32    1
     7    31    32    1
     8    31    30    1
     9    30    27    1
    10    27    28   ar
    11    27    26   ar
    12    28    29   ar
    13    26    25   ar
    14    29    24   ar
    15    25    24   ar
    16    24    22    1
    17    22    21   am
    18    22    23    2
    19    21     5    1
    20     4     5   ar
    21     4     3   ar
    22     5     6   ar
    23     3     2   ar
    24     6     7   ar
    25     2     7   ar
    26     2     1    1
    27     7     8    1
    28     8     9    1
    29    10     9    2
    30    10    11    1
    31     9    14    2
    32    11    12    1
    33    14    13    1
    34    12    13    2
    35    13    15    1
    36    15    20   ar
    37    15    16   ar
    38    20    19   ar
    39    16    17   ar
    40    19    18   ar
    41    17    18   ar
