@<TRIPOS>MOLECULE
/Users/xuhangdai/Desktop/Projects/OptimalTransport/extra_bio_ligands_boltz_af3/boltz_results_4csv_imatinib/4csv_imatinib_model_7_chainB.pdb
 37 41 0 0 0
SMALL
GASTEIGER

@<TRIPOS>ATOM
      1  C62       -6.3980   10.2300   -6.3910 C.3     0  LIG0        0.0324
      2  C56       -5.0890    9.5180   -6.6920 C.ar    0  LIG0       -0.0057
      3  C49       -4.0990   10.1570   -7.3890 C.ar    0  LIG0       -0.0016
      4  C47       -2.9060    9.5120   -7.6660 C.ar    0  LIG0        0.0164
      5  C54       -2.6910    8.2000   -7.2670 C.ar    0  LIG0        0.0750
      6  C48       -3.6780    7.5550   -6.5700 C.ar    0  LIG0        0.0336
      7  C55       -4.8810    8.1870   -6.2740 C.ar    0  LIG0        0.0790
      8  N59       -5.8670    7.5000   -5.6000 N.pl3   0  LIG0       -0.1464
      9  C37       -6.0390    7.5530   -4.2480 C.1     0  LIG0        0.1117
     10  N33       -5.1610    8.2710   -3.5260 N.2     0  LIG0       -0.2015
     11  C38       -5.3930    8.3220   -2.1750 C.3     0  LIG0        0.1653
     12  C42       -6.4760    7.6400   -1.6040 C.2     0  LIG0        0.0208
     13  C41       -7.3300    6.9290   -2.4360 C.2     0  LIG0        0.0916
     14  N35       -7.0980    6.8900   -3.7630 N.2     0  LIG0       -0.1806
     15  C53       -8.5000    6.1940   -1.9470 C.ar    0  LIG0        0.0374
     16  C46       -8.8350    6.1510   -0.5990 C.ar    0  LIG0        0.0047
     17  C43       -9.9390    5.4460   -0.1910 C.ar    0  LIG0        0.0207
     18  C39      -10.7020    4.7860   -1.1250 C.ar    0  LIG0        0.0989
     19  N34      -10.4010    4.8160   -2.4230 N.ar    0  LIG0       -0.2423
     20  C40       -9.3150    5.5080   -2.8320 C.ar    0  LIG0        0.1003
     21  N58       -1.4690    7.6160   -7.6310 N.am    0  LIG0       -0.1754
     22  C36       -1.1250    6.2970   -7.5490 C.2     0  LIG0        0.2690
     23  O32       -1.8400    5.4850   -7.0200 O.2     0  LIG0       -0.2680
     24  C52        0.1790    5.8880   -8.1300 C.ar    0  LIG0        0.0554
     25  C44        0.5200    4.5320   -8.1920 C.ar    0  LIG0        0.0043
     26  C50        1.7320    4.1190   -8.7310 C.ar    0  LIG0       -0.0028
     27  C57        2.6300    5.0510   -9.2320 C.ar    0  LIG0       -0.0061
     28  C51        2.2880    6.3980   -9.1770 C.ar    0  LIG0       -0.0028
     29  C45        1.0750    6.8060   -8.6330 C.ar    0  LIG0        0.0043
     30  C64        3.9320    4.6140   -9.8100 C.3     0  LIG0        0.0992
     31  N61        5.0420    5.3810   -9.3060 N.3     0  LIG0       -0.2665
     32  C67        5.2300    5.1320   -7.8800 C.3     0  LIG0        0.0899
     33  C65        6.3830    5.9590   -7.3410 C.3     0  LIG0        0.0897
     34  N60        7.6220    5.6550   -8.0810 N.3     0  LIG0       -0.2691
     35  C66        7.4380    5.8880   -9.5050 C.3     0  LIG0        0.0897
     36  C68        6.2690    5.0510  -10.0380 C.3     0  LIG0        0.0899
     37  C63        8.7190    6.4760   -7.5770 C.3     0  LIG0        0.0897
@<TRIPOS>BOND
     1    36    35    1
     2    36    31    1
     3    30    31    1
     4    30    27    1
     5    35    34    1
     6    31    32    1
     7    27    28   ar
     8    27    26   ar
     9    28    29   ar
    10    26    25   ar
    11    29    24   ar
    12    25    24   ar
    13    24    22    1
    14    34    37    1
    15    34    33    1
    16    32    33    1
    17     4     3   ar
    18     4     5   ar
    19    21    22   am
    20    21     5    1
    21    22    23    2
    22     3     2   ar
    23     5     6   ar
    24     2     1    1
    25     2     7   ar
    26     6     7   ar
    27     7     8    1
    28     8     9    1
    29     9    14    2
    30     9    10    2
    31    14    13    1
    32    10    11    1
    33    20    19   ar
    34    20    15   ar
    35    13    15    1
    36    13    12    2
    37    19    18   ar
    38    11    12    1
    39    15    16   ar
    40    18    17   ar
    41    16    17   ar
