@<TRIPOS>MOLECULE
/Users/xuhangdai/Desktop/Projects/OptimalTransport/extra_bio_ligands_boltz_af3/boltz_results_4csv_imatinib/4csv_imatinib_model_16_chainB.pdb
 37 41 0 0 0
SMALL
GASTEIGER

@<TRIPOS>ATOM
      1  C62       -2.5100  -13.0620   -3.9330 C.3     0  LIG0        0.0324
      2  C56       -1.6100  -11.8700   -4.2060 C.ar    0  LIG0       -0.0057
      3  C49       -1.1440  -11.6220   -5.4770 C.ar    0  LIG0       -0.0016
      4  C47       -0.3190  -10.5340   -5.7320 C.ar    0  LIG0        0.0164
      5  C54        0.0760   -9.6840   -4.7110 C.ar    0  LIG0        0.0750
      6  C48       -0.3840   -9.9220   -3.4330 C.ar    0  LIG0        0.0336
      7  C55       -1.2220  -11.0060   -3.1530 C.ar    0  LIG0        0.0790
      8  N59       -1.6360  -11.2380   -1.8460 N.pl3   0  LIG0       -0.1464
      9  C37       -2.8510  -10.8530   -1.3280 C.1     0  LIG0        0.1117
     10  N33       -3.6990  -10.1760   -2.1250 N.2     0  LIG0       -0.2015
     11  C38       -4.9170   -9.8360   -1.5750 C.3     0  LIG0        0.1653
     12  C42       -5.2270  -10.1760   -0.2430 C.2     0  LIG0        0.0208
     13  C41       -4.2890  -10.8840    0.5050 C.2     0  LIG0        0.0916
     14  N35       -3.0970  -11.2150   -0.0490 N.2     0  LIG0       -0.1806
     15  C53       -4.5130  -11.3030    1.9060 C.ar    0  LIG0        0.0374
     16  C46       -5.6920  -11.0130    2.5920 C.ar    0  LIG0        0.0047
     17  C43       -5.8510  -11.4230    3.8990 C.ar    0  LIG0        0.0207
     18  C39       -4.8310  -12.1190    4.5210 C.ar    0  LIG0        0.0989
     19  N34       -3.6940  -12.4060    3.8870 N.ar    0  LIG0       -0.2423
     20  C40       -3.5330  -12.0070    2.5980 C.ar    0  LIG0        0.1003
     21  N58        0.9510   -8.6350   -5.0570 N.am    0  LIG0       -0.1754
     22  C36        1.6110   -7.7940   -4.1970 C.2     0  LIG0        0.2690
     23  O32        1.4050   -7.8200   -3.0120 O.2     0  LIG0       -0.2680
     24  C52        2.5950   -6.8310   -4.7660 C.ar    0  LIG0        0.0554
     25  C44        3.3390   -6.0020   -3.9020 C.ar    0  LIG0        0.0043
     26  C50        4.2660   -5.0930   -4.3970 C.ar    0  LIG0       -0.0028
     27  C57        4.4920   -4.9940   -5.7660 C.ar    0  LIG0       -0.0061
     28  C51        3.7640   -5.8200   -6.6190 C.ar    0  LIG0       -0.0028
     29  C45        2.8320   -6.7230   -6.1180 C.ar    0  LIG0        0.0043
     30  C64        5.4870   -4.0130   -6.3000 C.3     0  LIG0        0.0992
     31  N61        4.9670   -3.2430   -7.4050 N.3     0  LIG0       -0.2665
     32  C67        3.8480   -2.4020   -6.9690 C.3     0  LIG0        0.0899
     33  C65        3.2730   -1.6170   -8.1410 C.3     0  LIG0        0.0897
     34  N60        4.3210   -0.7820   -8.7640 N.3     0  LIG0       -0.2691
     35  C66        5.4510   -1.6130   -9.1860 C.3     0  LIG0        0.0897
     36  C68        6.0190   -2.4050   -7.9960 C.3     0  LIG0        0.0899
     37  C63        3.7670   -0.0660   -9.9230 C.3     0  LIG0        0.0897
@<TRIPOS>BOND
     1    37    34    1
     2    35    34    1
     3    35    36    1
     4    34    33    1
     5    33    32    1
     6    36    31    1
     7    31    32    1
     8    31    30    1
     9    28    29   ar
    10    28    27   ar
    11    30    27    1
    12    29    24   ar
    13    27    26   ar
    14     4     3   ar
    15     4     5   ar
    16     3     2   ar
    17    21     5    1
    18    21    22   am
    19    24    22    1
    20    24    25   ar
    21     5     6   ar
    22    26    25   ar
    23     2     1    1
    24     2     7   ar
    25    22    23    2
    26     6     7   ar
    27     7     8    1
    28    10    11    1
    29    10     9    2
    30     8     9    1
    31    11    12    1
    32     9    14    2
    33    12    13    2
    34    14    13    1
    35    13    15    1
    36    15    16   ar
    37    15    20   ar
    38    16    17   ar
    39    20    19   ar
    40    19    18   ar
    41    17    18   ar
