@<TRIPOS>MOLECULE
/Users/xuhangdai/Desktop/Projects/OptimalTransport/extra_bio_ligands_boltz_af3/boltz_results_4csv_imatinib/4csv_imatinib_model_3_chainB.pdb
 37 41 0 0 0
SMALL
GASTEIGER

@<TRIPOS>ATOM
      1  C62        2.5460   10.1210   -9.9380 C.3     0  LIG0        0.0324
      2  C56        2.9670    9.6590   -8.5540 C.ar    0  LIG0       -0.0057
      3  C49        3.6110   10.5170   -7.6970 C.ar    0  LIG0       -0.0016
      4  C47        4.0000   10.0950   -6.4340 C.ar    0  LIG0        0.0164
      5  C54        3.7720    8.7950   -6.0120 C.ar    0  LIG0        0.0750
      6  C48        3.1300    7.9280   -6.8630 C.ar    0  LIG0        0.0336
      7  C55        2.7200    8.3290   -8.1320 C.ar    0  LIG0        0.0790
      8  N59        2.1060    7.4170   -8.9760 N.pl3   0  LIG0       -0.1464
      9  C37        0.7540    7.2830   -9.1210 C.1     0  LIG0        0.1117
     10  N33       -0.0430    8.0810   -8.3850 N.2     0  LIG0       -0.2015
     11  C38       -1.3960    7.9290   -8.5870 C.3     0  LIG0        0.1653
     12  C42       -1.8920    6.9770   -9.4970 C.2     0  LIG0        0.0208
     13  C41       -0.9870    6.2050  -10.2150 C.2     0  LIG0        0.0916
     14  N35        0.3410    6.3650  -10.0170 N.2     0  LIG0       -0.1806
     15  C53       -1.3960    5.1880  -11.2050 C.ar    0  LIG0        0.0374
     16  C46       -2.7330    4.9120  -11.4710 C.ar    0  LIG0        0.0047
     17  C43       -3.0650    3.9520  -12.4030 C.ar    0  LIG0        0.0207
     18  C39       -2.0610    3.2660  -13.0540 C.ar    0  LIG0        0.0989
     19  N34       -0.7720    3.5150  -12.8130 N.ar    0  LIG0       -0.2423
     20  C40       -0.4380    4.4630  -11.8990 C.ar    0  LIG0        0.1003
     21  N58        4.2520    8.4520   -4.7310 N.am    0  LIG0       -0.1754
     22  C36        4.3010    7.2070   -4.1700 C.2     0  LIG0        0.2690
     23  O32        3.7960    6.2520   -4.7060 O.2     0  LIG0       -0.2680
     24  C52        5.0030    7.0580   -2.8630 C.ar    0  LIG0        0.0554
     25  C44        5.4620    8.1350   -2.1400 C.ar    0  LIG0        0.0043
     26  C50        6.1260    7.9530   -0.9300 C.ar    0  LIG0       -0.0028
     27  C57        6.3440    6.6840   -0.4090 C.ar    0  LIG0       -0.0061
     28  C51        5.8890    5.5780   -1.1330 C.ar    0  LIG0       -0.0028
     29  C45        5.2330    5.7680   -2.3450 C.ar    0  LIG0        0.0043
     30  C64        7.0490    6.4790    0.8900 C.3     0  LIG0        0.0992
     31  N61        6.5650    7.3430    1.9330 N.3     0  LIG0       -0.2665
     32  C67        5.1720    7.0270    2.2610 C.3     0  LIG0        0.0899
     33  C65        4.6560    7.9560    3.3490 C.3     0  LIG0        0.0897
     34  N60        5.5020    7.8500    4.5530 N.3     0  LIG0       -0.2691
     35  C66        6.8960    8.1440    4.2330 C.3     0  LIG0        0.0897
     36  C68        7.4030    7.2050    3.1300 C.3     0  LIG0        0.0899
     37  C63        5.0220    8.7770    5.5850 C.3     0  LIG0        0.0897
@<TRIPOS>BOND
     1    18    19   ar
     2    18    17   ar
     3    19    20   ar
     4    17    16   ar
     5    20    15   ar
     6    16    15   ar
     7    15    13    1
     8    13    14    1
     9    13    12    2
    10    14     9    2
    11     1     2    1
    12    12    11    1
    13     9     8    1
    14     9    10    2
    15     8     7    1
    16    11    10    1
    17     2     7   ar
    18     2     3   ar
    19     7     6   ar
    20     3     4   ar
    21     6     5   ar
    22     4     5   ar
    23     5    21    1
    24    21    22   am
    25    23    22    2
    26    22    24    1
    27    24    29   ar
    28    24    25   ar
    29    29    28   ar
    30    25    26   ar
    31    28    27   ar
    32    26    27   ar
    33    27    30    1
    34    30    31    1
    35    31    32    1
    36    31    36    1
    37    32    33    1
    38    36    35    1
    39    33    34    1
    40    35    34    1
    41    34    37    1
