@<TRIPOS>MOLECULE
/Users/xuhangdai/Desktop/Projects/OptimalTransport/extra_bio_ligands_boltz_af3/boltz_results_4csv_imatinib/4csv_imatinib_model_22_chainB.pdb
 37 41 0 0 0
SMALL
GASTEIGER

@<TRIPOS>ATOM
      1  C62       -4.0570   12.6290   -2.9140 C.3     0  LIG0        0.0324
      2  C56       -4.3670   11.4390   -2.0170 C.ar    0  LIG0       -0.0057
      3  C49       -5.6210   11.2720   -1.4850 C.ar    0  LIG0       -0.0016
      4  C47       -5.9030   10.1910   -0.6610 C.ar    0  LIG0        0.0164
      5  C54       -4.9250    9.2620   -0.3330 C.ar    0  LIG0        0.0750
      6  C48       -3.6640    9.4200   -0.8630 C.ar    0  LIG0        0.0336
      7  C55       -3.3590   10.4990   -1.6990 C.ar    0  LIG0        0.0790
      8  N59       -2.0730   10.6610   -2.1810 N.pl3   0  LIG0       -0.1464
      9  C37       -1.6280   10.1780   -3.3830 C.1     0  LIG0        0.1117
     10  N33       -2.4870    9.4710   -4.1420 N.2     0  LIG0       -0.2015
     11  C38       -2.0010    9.0280   -5.3530 C.3     0  LIG0        0.1653
     12  C42       -0.6800    9.2960   -5.7460 C.2     0  LIG0        0.0208
     13  C41        0.1290   10.0420   -4.8980 C.2     0  LIG0        0.0916
     14  N35       -0.3570   10.4810   -3.7120 N.2     0  LIG0       -0.1806
     15  C53        1.5240   10.3950   -5.2160 C.ar    0  LIG0        0.0374
     16  C46        2.1390    9.9910   -6.3970 C.ar    0  LIG0        0.0047
     17  C43        3.4450   10.3410   -6.6510 C.ar    0  LIG0        0.0207
     18  C39        4.1340   11.0900   -5.7180 C.ar    0  LIG0        0.0989
     19  N34        3.5640   11.4890   -4.5800 N.ar    0  LIG0       -0.2423
     20  C40        2.2760   11.1490   -4.3280 C.ar    0  LIG0        0.1003
     21  N58       -5.3010    8.2280    0.5520 N.am    0  LIG0       -0.1754
     22  C36       -4.4900    7.2830    1.1270 C.2     0  LIG0        0.2690
     23  O32       -3.3290    7.1750    0.8140 O.2     0  LIG0       -0.2680
     24  C52       -5.0750    6.3820    2.1600 C.ar    0  LIG0        0.0554
     25  C44       -6.4140    6.3630    2.4580 C.ar    0  LIG0        0.0043
     26  C50       -6.9160    5.5210    3.4430 C.ar    0  LIG0       -0.0028
     27  C57       -6.0810    4.6710    4.1600 C.ar    0  LIG0       -0.0061
     28  C51       -4.7150    4.6790    3.8720 C.ar    0  LIG0       -0.0028
     29  C45       -4.2220    5.5250    2.8910 C.ar    0  LIG0        0.0043
     30  C64       -6.6110    3.7650    5.2190 C.3     0  LIG0        0.0992
     31  N61       -7.7330    2.9890    4.7750 N.3     0  LIG0       -0.2665
     32  C67       -7.3290    2.0520    3.7220 C.3     0  LIG0        0.0899
     33  C65       -8.5200    1.2430    3.2420 C.3     0  LIG0        0.0897
     34  N60       -9.1300    0.5130    4.3700 N.3     0  LIG0       -0.2691
     35  C66       -9.5180    1.4390    5.4350 C.3     0  LIG0        0.0897
     36  C68       -8.3080    2.2550    5.9050 C.3     0  LIG0        0.0899
     37  C63      -10.3040   -0.2350    3.9080 C.3     0  LIG0        0.0897
@<TRIPOS>BOND
     1    17    16   ar
     2    17    18   ar
     3    16    15   ar
     4    12    11    1
     5    12    13    2
     6    18    19   ar
     7    11    10    1
     8    15    13    1
     9    15    20   ar
    10    13    14    1
    11    19    20   ar
    12    10     9    2
    13    14     9    2
    14     9     8    1
    15     1     2    1
    16     8     7    1
    17     2     7   ar
    18     2     3   ar
    19     7     6   ar
    20     3     4   ar
    21     6     5   ar
    22     4     5   ar
    23     5    21    1
    24    21    22   am
    25    23    22    2
    26    22    24    1
    27    24    25   ar
    28    24    29   ar
    29    25    26   ar
    30    29    28   ar
    31    33    32    1
    32    33    34    1
    33    26    27   ar
    34    32    31    1
    35    28    27   ar
    36    37    34    1
    37    27    30    1
    38    34    35    1
    39    31    30    1
    40    31    36    1
    41    35    36    1
