@<TRIPOS>MOLECULE
/Users/xuhangdai/Desktop/Projects/OptimalTransport/extra_bio_ligands_boltz_af3/boltz_results_4csv_imatinib/4csv_imatinib_model_9_chainB.pdb
 37 41 0 0 0
SMALL
GASTEIGER

@<TRIPOS>ATOM
      1  C62      -10.8200    1.8410   -3.9140 C.3     0  LIG0        0.0324
      2  C56       -9.6760    0.8430   -3.8400 C.ar    0  LIG0       -0.0057
      3  C49       -9.6270   -0.2250   -4.6960 C.ar    0  LIG0       -0.0016
      4  C47       -8.5870   -1.1360   -4.6300 C.ar    0  LIG0        0.0164
      5  C54       -7.5790   -1.0060   -3.6860 C.ar    0  LIG0        0.0750
      6  C48       -7.6200    0.0600   -2.8210 C.ar    0  LIG0        0.0336
      7  C55       -8.6540    0.9910   -2.8720 C.ar    0  LIG0        0.0790
      8  N59       -8.6840    2.0340   -1.9640 N.pl3   0  LIG0       -0.1464
      9  C37       -8.1760    3.2800   -2.2100 C.1     0  LIG0        0.1117
     10  N33       -7.5850    3.5010   -3.3990 N.2     0  LIG0       -0.2015
     11  C38       -7.1120    4.7750   -3.6120 C.3     0  LIG0        0.1653
     12  C42       -7.2350    5.7650   -2.6210 C.2     0  LIG0        0.0208
     13  C41       -7.8670    5.4430   -1.4260 C.2     0  LIG0        0.0916
     14  N35       -8.3350    4.1890   -1.2290 N.2     0  LIG0       -0.1806
     15  C53       -8.0570    6.4080   -0.3280 C.ar    0  LIG0        0.0374
     16  C46       -7.5830    7.7110   -0.4010 C.ar    0  LIG0        0.0047
     17  C43       -7.7810    8.5760    0.6500 C.ar    0  LIG0        0.0207
     18  C39       -8.4470    8.1320    1.7720 C.ar    0  LIG0        0.0989
     19  N34       -8.9120    6.8860    1.8660 N.ar    0  LIG0       -0.2423
     20  C40       -8.7220    6.0310    0.8310 C.ar    0  LIG0        0.1003
     21  N58       -6.5910   -2.0100   -3.6700 N.am    0  LIG0       -0.1754
     22  C36       -5.6050   -2.1840   -2.7390 C.2     0  LIG0        0.2690
     23  O32       -5.4090   -1.3760   -1.8640 O.2     0  LIG0       -0.2680
     24  C52       -4.7670   -3.4070   -2.8330 C.ar    0  LIG0        0.0554
     25  C44       -4.8430   -4.2820   -3.8860 C.ar    0  LIG0        0.0043
     26  C50       -4.0540   -5.4230   -3.9280 C.ar    0  LIG0       -0.0028
     27  C57       -3.1650   -5.7200   -2.9060 C.ar    0  LIG0       -0.0061
     28  C51       -3.0730   -4.8430   -1.8280 C.ar    0  LIG0       -0.0028
     29  C45       -3.8710   -3.7080   -1.7920 C.ar    0  LIG0        0.0043
     30  C64       -2.3140   -6.9460   -2.9360 C.3     0  LIG0        0.0992
     31  N61       -1.6280   -7.1330   -4.1900 N.3     0  LIG0       -0.2665
     32  C67       -0.6680   -6.0520   -4.4150 C.3     0  LIG0        0.0899
     33  C65        0.0510   -6.2410   -5.7410 C.3     0  LIG0        0.0897
     34  N60        0.7350   -7.5470   -5.7700 N.3     0  LIG0       -0.2691
     35  C66       -0.2130   -8.6320   -5.5310 C.3     0  LIG0        0.0897
     36  C68       -0.9390   -8.4280   -4.1950 C.3     0  LIG0        0.0899
     37  C63        1.4090   -7.7350   -7.0570 C.3     0  LIG0        0.0897
@<TRIPOS>BOND
     1    37    34    1
     2    34    33    1
     3    34    35    1
     4    33    32    1
     5    35    36    1
     6     3     4   ar
     7     3     2   ar
     8     4     5   ar
     9    32    31    1
    10    36    31    1
    11    31    30    1
    12    26    25   ar
    13    26    27   ar
    14     1     2    1
    15    25    24   ar
    16     2     7   ar
    17     5    21    1
    18     5     6   ar
    19    21    22   am
    20    11    10    1
    21    11    12    1
    22    10     9    2
    23    30    27    1
    24    27    28   ar
    25     7     6   ar
    26     7     8    1
    27    24    22    1
    28    24    29   ar
    29    22    23    2
    30    12    13    2
    31     9     8    1
    32     9    14    2
    33    28    29   ar
    34    13    14    1
    35    13    15    1
    36    16    15   ar
    37    16    17   ar
    38    15    20   ar
    39    17    18   ar
    40    20    19   ar
    41    18    19   ar
