@<TRIPOS>MOLECULE
/Users/xuhangdai/Desktop/Projects/OptimalTransport/extra_bio_ligands_boltz_af3/boltz_results_4csv_imatinib/4csv_imatinib_model_45_chainB.pdb
 37 41 0 0 0
SMALL
GASTEIGER

@<TRIPOS>ATOM
      1  C62        2.6330   -2.8960  -12.2380 C.3     0  LIG0        0.0324
      2  C56        1.9450   -3.5640  -11.0560 C.ar    0  LIG0       -0.0057
      3  C49        1.7850   -4.9300  -11.0150 C.ar    0  LIG0       -0.0016
      4  C47        1.1500   -5.5380   -9.9360 C.ar    0  LIG0        0.0164
      5  C54        0.6430   -4.7900   -8.8820 C.ar    0  LIG0        0.0750
      6  C48        0.7970   -3.4200   -8.9180 C.ar    0  LIG0        0.0336
      7  C55        1.4360   -2.7850   -9.9910 C.ar    0  LIG0        0.0790
      8  N59        1.5400   -1.3990  -10.0150 N.pl3   0  LIG0       -0.1464
      9  C37        2.6070   -0.6850   -9.5310 C.1     0  LIG0        0.1117
     10  N33        3.6300   -1.3680   -8.9760 N.2     0  LIG0       -0.2015
     11  C38        4.6930   -0.6120   -8.5280 C.3     0  LIG0        0.1653
     12  C42        4.6800    0.7920   -8.6360 C.2     0  LIG0        0.0208
     13  C41        3.5830    1.4090   -9.2280 C.2     0  LIG0        0.0916
     14  N35        2.5430    0.6570   -9.6750 N.2     0  LIG0       -0.1806
     15  C53        3.4710    2.8710   -9.4000 C.ar    0  LIG0        0.0374
     16  C46        4.4810    3.7440   -8.9990 C.ar    0  LIG0        0.0047
     17  C43        4.3320    5.1040   -9.1750 C.ar    0  LIG0        0.0207
     18  C39        3.1690    5.5870   -9.7480 C.ar    0  LIG0        0.0989
     19  N34        2.1900    4.7720  -10.1420 N.ar    0  LIG0       -0.2423
     20  C40        2.3330    3.4300   -9.9720 C.ar    0  LIG0        0.1003
     21  N58       -0.0270   -5.4930   -7.8560 N.am    0  LIG0       -0.1754
     22  C36       -0.7500   -4.9670   -6.8120 C.2     0  LIG0        0.2690
     23  O32       -0.7840   -3.7760   -6.6050 O.2     0  LIG0       -0.2680
     24  C52       -1.5020   -5.9050   -5.9300 C.ar    0  LIG0        0.0554
     25  C44       -1.3830   -7.2760   -6.0220 C.ar    0  LIG0        0.0043
     26  C50       -2.1130   -8.1160   -5.1840 C.ar    0  LIG0       -0.0028
     27  C57       -2.9870   -7.6050   -4.2280 C.ar    0  LIG0       -0.0061
     28  C51       -3.1230   -6.2150   -4.1220 C.ar    0  LIG0       -0.0028
     29  C45       -2.3940   -5.3820   -4.9670 C.ar    0  LIG0        0.0043
     30  C64       -3.7780   -8.4970   -3.3250 C.3     0  LIG0        0.0992
     31  N61       -2.9800   -9.5040   -2.6640 N.3     0  LIG0       -0.2665
     32  C67       -2.0230   -8.8890   -1.7320 C.3     0  LIG0        0.0899
     33  C65       -1.1720   -9.9580   -1.0580 C.3     0  LIG0        0.0897
     34  N60       -2.0310  -10.9320   -0.3430 N.3     0  LIG0       -0.2691
     35  C66       -3.0040  -11.5320   -1.2600 C.3     0  LIG0        0.0897
     36  C68       -3.8500  -10.4400   -1.9380 C.3     0  LIG0        0.0899
     37  C63       -1.2020  -11.9850    0.2590 C.3     0  LIG0        0.0897
@<TRIPOS>BOND
     1     1     2    1
     2     2     3   ar
     3     2     7   ar
     4     3     4   ar
     5    19    20   ar
     6    19    18   ar
     7     8     7    1
     8     8     9    1
     9     7     6   ar
    10    20    15   ar
    11     4     5   ar
    12    18    17   ar
    13    14     9    2
    14    14    13    1
    15     9    10    2
    16    15    13    1
    17    15    16   ar
    18    13    12    2
    19    17    16   ar
    20    10    11    1
    21     6     5   ar
    22     5    21    1
    23    12    11    1
    24    21    22   am
    25    22    23    2
    26    22    24    1
    27    25    24   ar
    28    25    26   ar
    29    24    29   ar
    30    26    27   ar
    31    29    28   ar
    32    27    28   ar
    33    27    30    1
    34    30    31    1
    35    31    36    1
    36    31    32    1
    37    36    35    1
    38    32    33    1
    39    35    34    1
    40    33    34    1
    41    34    37    1
