@<TRIPOS>MOLECULE
/Users/xuhangdai/Desktop/Projects/OptimalTransport/extra_bio_ligands_boltz_af3/boltz_results_4csv_imatinib/4csv_imatinib_model_26_chainB.pdb
 37 41 0 0 0
SMALL
GASTEIGER

@<TRIPOS>ATOM
      1  C62        2.2170   -2.3110  -13.1600 C.3     0  LIG0        0.0324
      2  C56        2.8430   -1.8170  -11.8600 C.ar    0  LIG0       -0.0057
      3  C49        3.7570   -0.7880  -11.8660 C.ar    0  LIG0       -0.0016
      4  C47        4.3320   -0.3400  -10.6800 C.ar    0  LIG0        0.0164
      5  C54        4.0190   -0.9300   -9.4630 C.ar    0  LIG0        0.0750
      6  C48        3.1060   -1.9600   -9.4480 C.ar    0  LIG0        0.0336
      7  C55        2.5070   -2.4260  -10.6270 C.ar    0  LIG0        0.0790
      8  N59        1.6150   -3.4880  -10.5860 N.pl3   0  LIG0       -0.1464
      9  C37        0.2540   -3.3480  -10.4930 C.1     0  LIG0        0.1117
     10  N33       -0.2440   -2.1000  -10.3750 N.2     0  LIG0       -0.2015
     11  C38       -1.6200   -2.0010  -10.3140 C.3     0  LIG0        0.1653
     12  C42       -2.4330   -3.1520  -10.3530 C.2     0  LIG0        0.0208
     13  C41       -1.8250   -4.3980  -10.4830 C.2     0  LIG0        0.0916
     14  N35       -0.4730   -4.4820  -10.5490 N.2     0  LIG0       -0.1806
     15  C53       -2.5810   -5.6660  -10.5480 C.ar    0  LIG0        0.0374
     16  C46       -3.9700   -5.7070  -10.4790 C.ar    0  LIG0        0.0047
     17  C43       -4.6290   -6.9160  -10.5420 C.ar    0  LIG0        0.0207
     18  C39       -3.8980   -8.0800  -10.6620 C.ar    0  LIG0        0.0989
     19  N34       -2.5630   -8.0660  -10.7310 N.ar    0  LIG0       -0.2423
     20  C40       -1.9070   -6.8760  -10.6720 C.ar    0  LIG0        0.1003
     21  N58        4.6870   -0.4310   -8.3200 N.am    0  LIG0       -0.1754
     22  C36        4.6730   -0.9570   -7.0500 C.2     0  LIG0        0.2690
     23  O32        3.9440   -1.8750   -6.7580 O.2     0  LIG0       -0.2680
     24  C52        5.5830   -0.3540   -6.0290 C.ar    0  LIG0        0.0554
     25  C44        6.3560    0.7580   -6.2840 C.ar    0  LIG0        0.0043
     26  C50        7.2030    1.2850   -5.3090 C.ar    0  LIG0       -0.0028
     27  C57        7.3050    0.7070   -4.0470 C.ar    0  LIG0       -0.0061
     28  C51        6.5300   -0.4270   -3.7700 C.ar    0  LIG0       -0.0028
     29  C45        5.6890   -0.9500   -4.7510 C.ar    0  LIG0        0.0043
     30  C64        8.2120    1.2710   -2.9990 C.3     0  LIG0        0.0992
     31  N61        7.9850    2.6900   -2.7630 N.3     0  LIG0       -0.2665
     32  C67        6.6400    2.9130   -2.2150 C.3     0  LIG0        0.0899
     33  C65        6.3870    4.4020   -1.9970 C.3     0  LIG0        0.0897
     34  N60        7.4070    4.9690   -1.0900 N.3     0  LIG0       -0.2691
     35  C66        8.7510    4.7360   -1.6170 C.3     0  LIG0        0.0897
     36  C68        8.9940    3.2280   -1.8380 C.3     0  LIG0        0.0899
     37  C63        7.1780    6.4120   -0.9080 C.3     0  LIG0        0.0897
@<TRIPOS>BOND
     1     1     2    1
     2     3     2   ar
     3     3     4   ar
     4     2     7   ar
     5    19    20   ar
     6    19    18   ar
     7     4     5   ar
     8    20    15   ar
     9    18    17   ar
    10     7     8    1
    11     7     6   ar
    12     8     9    1
    13    14     9    2
    14    14    13    1
    15    15    13    1
    16    15    16   ar
    17    17    16   ar
    18     9    10    2
    19    13    12    2
    20    10    11    1
    21    12    11    1
    22     5     6   ar
    23     5    21    1
    24    21    22   am
    25    22    23    2
    26    22    24    1
    27    25    24   ar
    28    25    26   ar
    29    24    29   ar
    30    26    27   ar
    31    29    28   ar
    32    27    28   ar
    33    27    30    1
    34    30    31    1
    35    31    32    1
    36    31    36    1
    37    32    33    1
    38    33    34    1
    39    36    35    1
    40    35    34    1
    41    34    37    1
