@<TRIPOS>MOLECULE
/Users/xuhangdai/Desktop/Projects/OptimalTransport/extra_bio_ligands_boltz_af3/boltz_results_4csv_imatinib/4csv_imatinib_model_46_chainB.pdb
 37 41 0 0 0
SMALL
GASTEIGER

@<TRIPOS>ATOM
      1  C62       -4.9530   -8.8790   -9.6700 C.3     0  LIG0        0.0324
      2  C56       -4.5630   -8.8010   -8.1990 C.ar    0  LIG0       -0.0057
      3  C49       -4.0550   -9.9000   -7.5430 C.ar    0  LIG0       -0.0016
      4  C47       -3.7000   -9.8300   -6.1970 C.ar    0  LIG0        0.0164
      5  C54       -3.8690   -8.6590   -5.4640 C.ar    0  LIG0        0.0750
      6  C48       -4.3810   -7.5530   -6.1180 C.ar    0  LIG0        0.0336
      7  C55       -4.7370   -7.5970   -7.4790 C.ar    0  LIG0        0.0790
      8  N59       -5.2820   -6.4750   -8.1030 N.pl3   0  LIG0       -0.1464
      9  C37       -4.5480   -5.5510   -8.8140 C.1     0  LIG0        0.1117
     10  N33       -3.2110   -5.7180   -8.8600 N.2     0  LIG0       -0.2015
     11  C38       -2.5090   -4.7870   -9.5990 C.3     0  LIG0        0.1653
     12  C42       -3.1650   -3.7210  -10.2470 C.2     0  LIG0        0.0208
     13  C41       -4.5500   -3.6320  -10.1530 C.2     0  LIG0        0.0916
     14  N35       -5.2360   -4.5570   -9.4280 N.2     0  LIG0       -0.1806
     15  C53       -5.3330   -2.5610  -10.8100 C.ar    0  LIG0        0.0374
     16  C46       -4.7290   -1.5470  -11.5520 C.ar    0  LIG0        0.0047
     17  C43       -5.5010   -0.5690  -12.1420 C.ar    0  LIG0        0.0207
     18  C39       -6.8670   -0.6050  -11.9830 C.ar    0  LIG0        0.0989
     19  N34       -7.4700   -1.5690  -11.2780 N.ar    0  LIG0       -0.2423
     20  C40       -6.7150   -2.5360  -10.6960 C.ar    0  LIG0        0.1003
     21  N58       -3.5270   -8.6990   -4.0800 N.am    0  LIG0       -0.1754
     22  C36       -3.7100   -7.7080   -3.1320 C.2     0  LIG0        0.2690
     23  O32       -4.0820   -6.6060   -3.4480 O.2     0  LIG0       -0.2680
     24  C52       -3.4390   -8.0260   -1.6910 C.ar    0  LIG0        0.0554
     25  C44       -3.8700   -7.1410   -0.6790 C.ar    0  LIG0        0.0043
     26  C50       -3.6500   -7.4110    0.6760 C.ar    0  LIG0       -0.0028
     27  C57       -2.9990   -8.5790    1.0710 C.ar    0  LIG0       -0.0061
     28  C51       -2.5760   -9.4620    0.0730 C.ar    0  LIG0       -0.0028
     29  C45       -2.7980   -9.1840   -1.2860 C.ar    0  LIG0        0.0043
     30  C64       -2.7770   -8.8760    2.5300 C.3     0  LIG0        0.0992
     31  N61       -1.3980   -9.1720    2.8700 N.3     0  LIG0       -0.2665
     32  C67       -0.5410   -7.9940    2.6980 C.3     0  LIG0        0.0899
     33  C65        0.9100   -8.3280    3.0360 C.3     0  LIG0        0.0897
     34  N60        1.0120   -8.8180    4.4230 N.3     0  LIG0       -0.2691
     35  C66        0.1510   -9.9780    4.6200 C.3     0  LIG0        0.0897
     36  C68       -1.3070   -9.6380    4.2620 C.3     0  LIG0        0.0899
     37  C63        2.4070   -9.1610    4.7370 C.3     0  LIG0        0.0897
@<TRIPOS>BOND
     1    17    18   ar
     2    17    16   ar
     3    18    19   ar
     4    16    15   ar
     5    19    20   ar
     6    15    20   ar
     7    15    13    1
     8    12    13    2
     9    12    11    1
    10    13    14    1
    11     1     2    1
    12    11    10    1
    13    14     9    2
    14    10     9    2
    15     9     8    1
    16     2     3   ar
    17     2     7   ar
    18     8     7    1
    19     3     4   ar
    20     7     6   ar
    21     4     5   ar
    22     6     5   ar
    23     5    21    1
    24    21    22   am
    25    23    22    2
    26    22    24    1
    27    24    29   ar
    28    24    25   ar
    29    29    28   ar
    30    25    26   ar
    31    28    27   ar
    32    26    27   ar
    33    27    30    1
    34    30    31    1
    35    32    31    1
    36    32    33    1
    37    31    36    1
    38    33    34    1
    39    36    35    1
    40    34    35    1
    41    34    37    1
