@<TRIPOS>MOLECULE
/Users/xuhangdai/Desktop/Projects/OptimalTransport/extra_bio_ligands_boltz_af3/boltz_results_4csv_imatinib/4csv_imatinib_model_33_chainB.pdb
 37 41 0 0 0
SMALL
GASTEIGER

@<TRIPOS>ATOM
      1  C62       11.2400   -8.3360    1.9990 C.3     0  LIG0        0.0324
      2  C56       10.5560   -7.5680    0.8810 C.ar    0  LIG0       -0.0057
      3  C49       10.7280   -7.9430   -0.4240 C.ar    0  LIG0       -0.0016
      4  C47       10.1070   -7.2420   -1.4450 C.ar    0  LIG0        0.0164
      5  C54        9.3160   -6.1370   -1.1760 C.ar    0  LIG0        0.0750
      6  C48        9.1420   -5.7510    0.1260 C.ar    0  LIG0        0.0336
      7  C55        9.7510   -6.4440    1.1680 C.ar    0  LIG0        0.0790
      8  N59        9.5810   -6.0070    2.4640 N.pl3   0  LIG0       -0.1464
      9  C37        8.6220   -6.4770    3.3150 C.1     0  LIG0        0.1117
     10  N33        7.7640   -7.4010    2.8500 N.2     0  LIG0       -0.2015
     11  C38        6.8340   -7.8610    3.7470 C.3     0  LIG0        0.1653
     12  C42        6.7900   -7.3680    5.0640 C.2     0  LIG0        0.0208
     13  C41        7.7260   -6.4150    5.4490 C.2     0  LIG0        0.0916
     14  N35        8.6390   -5.9710    4.5620 N.2     0  LIG0       -0.1806
     15  C53        7.7800   -5.8370    6.8020 C.ar    0  LIG0        0.0374
     16  C46        6.9030   -6.2230    7.8060 C.ar    0  LIG0        0.0047
     17  C43        6.9900   -5.6530    9.0540 C.ar    0  LIG0        0.0207
     18  C39        7.9480   -4.6950    9.2900 C.ar    0  LIG0        0.0989
     19  N34        8.8060   -4.3090    8.3410 N.ar    0  LIG0       -0.2423
     20  C40        8.7240   -4.8690    7.1100 C.ar    0  LIG0        0.1003
     21  N58        8.7620   -5.4710   -2.2820 N.am    0  LIG0       -0.1754
     22  C36        8.0640   -4.3000   -2.2750 C.2     0  LIG0        0.2690
     23  O32        7.7470   -3.7490   -1.2510 O.2     0  LIG0       -0.2680
     24  C52        7.6970   -3.7240   -3.5910 C.ar    0  LIG0        0.0554
     25  C44        7.8850   -4.4000   -4.7670 C.ar    0  LIG0        0.0043
     26  C50        7.5440   -3.8280   -5.9800 C.ar    0  LIG0       -0.0028
     27  C57        7.0070   -2.5540   -6.0480 C.ar    0  LIG0       -0.0061
     28  C51        6.8100   -1.8470   -4.8610 C.ar    0  LIG0       -0.0028
     29  C45        7.1600   -2.4270   -3.6510 C.ar    0  LIG0        0.0043
     30  C64        6.6380   -1.9310   -7.3490 C.3     0  LIG0        0.0992
     31  N61        5.8390   -2.7930   -8.1740 N.3     0  LIG0       -0.2665
     32  C67        4.5280   -3.0300   -7.5580 C.3     0  LIG0        0.0899
     33  C65        3.6910   -3.9480   -8.4270 C.3     0  LIG0        0.0897
     34  N60        3.5350   -3.3740   -9.7750 N.3     0  LIG0       -0.2691
     35  C66        4.8400   -3.1320  -10.3850 C.3     0  LIG0        0.0897
     36  C68        5.6760   -2.2020   -9.5010 C.3     0  LIG0        0.0899
     37  C63        2.7490   -4.2810  -10.6190 C.3     0  LIG0        0.0897
@<TRIPOS>BOND
     1    37    34    1
     2    35    34    1
     3    35    36    1
     4    34    33    1
     5    36    31    1
     6    33    32    1
     7    31    32    1
     8    31    30    1
     9    30    27    1
    10    27    26   ar
    11    27    28   ar
    12    26    25   ar
    13    28    29   ar
    14    25    24   ar
    15    29    24   ar
    16    24    22    1
    17    21    22   am
    18    21     5    1
    19    22    23    2
    20     4     5   ar
    21     4     3   ar
    22     5     6   ar
    23     3     2   ar
    24     6     7   ar
    25     2     7   ar
    26     2     1    1
    27     7     8    1
    28     8     9    1
    29    10     9    2
    30    10    11    1
    31     9    14    2
    32    11    12    1
    33    14    13    1
    34    12    13    2
    35    13    15    1
    36    15    20   ar
    37    15    16   ar
    38    20    19   ar
    39    16    17   ar
    40    19    18   ar
    41    17    18   ar
