BP70
     RDKit          3D

223228  0  0  0  0  0  0  0  0999 V2000
   -4.0461    2.4278    3.5050 C   0  0  2  0  0  0  0  0  0  0  0  0
   -2.9556    1.9354    2.5564 C   0  0  1  0  0  0  0  0  0  0  0  0
   -3.0552    0.4449    2.5001 C   0  0  1  0  0  0  0  0  0  0  0  0
   -4.0400   -0.1193    1.5748 C   0  0  0  0  0  0  0  0  0  0  0  0
   -4.6935    0.7526    0.5468 C   0  0  0  0  0  0  0  0  0  0  0  0
   -4.6129    2.2241    0.8760 C   0  0  0  0  0  0  0  0  0  0  0  0
   -3.1264    2.5060    1.1908 C   0  0  0  0  0  0  0  0  0  0  0  0
   -2.8729    3.9748    1.0322 C   0  0  2  0  0  0  0  0  0  0  0  0
   -6.1556    0.4630    0.3503 C   0  0  0  0  0  0  0  0  0  0  0  0
   -1.6521   -0.1320    2.4296 C   0  0  1  0  0  0  0  0  0  0  0  0
   -3.6461    2.4114    4.5420 H   0  0  0  0  0  0  0  0  0  0  0  0
   -4.8855    1.6846    3.4882 H   0  0  0  0  0  0  0  0  0  0  0  0
   -4.3571    3.4627    3.2944 H   0  0  0  0  0  0  0  0  0  0  0  0
   -4.9078   -0.6260    2.1104 H   0  0  0  0  0  0  0  0  0  0  0  0
   -5.2687    2.4960    1.7035 H   0  0  0  0  0  0  0  0  0  0  0  0
   -2.8705    4.4067    2.0725 H   0  0  0  0  0  0  0  0  0  0  0  0
   -3.7672    4.4689    0.5589 H   0  0  0  0  0  0  0  0  0  0  0  0
   -1.4424   -0.4674    1.4119 H   0  0  0  0  0  0  0  0  0  0  0  0
   -6.9776    1.5245    0.7689 O   0  0  0  0  0  0  0  0  0  0  0  0
   -0.9419    0.7051    2.6163 H   0  0  0  0  0  0  0  0  0  0  0  0
   -6.4472    0.0854   -1.0065 N   0  0  0  0  0  0  0  0  0  0  0  0
   -5.8929   -1.1547   -1.4419 C   0  0  2  0  0  0  0  0  0  0  0  0
   -4.5554   -1.0412   -2.1246 C   0  0  0  0  0  0  0  0  0  0  0  0
   -4.2684   -0.1872   -2.9579 O   0  0  0  0  0  0  0  0  0  0  0  0
   -6.9123   -1.6350   -2.5265 C   0  0  0  0  0  0  0  0  0  0  0  0
   -6.5282   -2.9063   -3.1183 C   0  0  0  0  0  0  0  0  0  0  0  0
   -5.7375   -3.0804   -4.2200 N   0  0  0  0  0  0  0  0  0  0  0  0
   -6.8995   -4.1639   -2.6884 C   0  0  0  0  0  0  0  0  0  0  0  0
   -5.6301   -4.3881   -4.4521 C   0  0  0  0  0  0  0  0  0  0  0  0
   -6.3371   -5.0776   -3.5241 N   0  0  0  0  0  0  0  0  0  0  0  0
   -6.2539    0.8674   -1.6742 H   0  0  0  0  0  0  0  0  0  0  0  0
   -5.8606   -1.9443   -0.7073 H   0  0  0  0  0  0  0  0  0  0  0  0
   -6.8596   -0.8392   -3.3330 H   0  0  0  0  0  0  0  0  0  0  0  0
   -7.9219   -1.5689   -2.1186 H   0  0  0  0  0  0  0  0  0  0  0  0
   -7.5173   -4.3340   -1.8450 H   0  0  0  0  0  0  0  0  0  0  0  0
   -5.0551   -4.8329   -5.2729 H   0  0  0  0  0  0  0  0  0  0  0  0
   -6.4350   -6.1253   -3.4607 H   0  0  0  0  0  0  0  0  0  0  0  0
   -3.5389   -1.9670   -1.7790 N   0  0  0  0  0  0  0  0  0  0  0  0
   -2.2302   -2.0949   -2.3739 C   0  0  1  0  0  0  0  0  0  0  0  0
   -1.4618   -0.7819   -2.1607 C   0  0  2  0  0  0  0  0  0  0  0  0
   -0.0902   -0.7544   -2.7109 C   0  0  2  0  0  0  0  0  0  0  0  0
    0.5050    0.5969   -2.4119 C   0  0  1  0  0  0  0  0  0  0  0  0
    1.8919    0.6918   -2.9414 N   0  0  2  0  0  0  0  0  0  0  0  0
   -1.5436   -3.2210   -1.6845 C   0  0  0  0  0  0  0  0  0  0  0  0
   -1.3896   -2.9438   -0.3119 O   0  0  0  0  0  0  0  0  0  0  0  0
   -3.7860   -2.6072   -1.0117 H   0  0  0  0  0  0  0  0  0  0  0  0
   -2.2137   -2.1996   -3.4647 H   0  0  0  0  0  0  0  0  0  0  0  0
   -1.5270   -0.5435   -1.0939 H   0  0  0  0  0  0  0  0  0  0  0  0
   -2.0268    0.0316   -2.6766 H   0  0  0  0  0  0  0  0  0  0  0  0
   -0.0821   -0.8267   -3.8357 H   0  0  0  0  0  0  0  0  0  0  0  0
    0.6042   -1.5119   -2.3457 H   0  0  0  0  0  0  0  0  0  0  0  0
   -0.1027    1.3689   -2.9217 H   0  0  0  0  0  0  0  0  0  0  0  0
    0.5492    0.8516   -1.3531 H   0  0  0  0  0  0  0  0  0  0  0  0
    2.5657    0.7655   -2.1196 H   0  0  0  0  0  0  0  0  0  0  0  0
    1.9824    1.5824   -3.5518 H   0  0  0  0  0  0  0  0  0  0  0  0
    2.1058   -0.1676   -3.5374 H   0  0  0  0  0  0  0  0  0  0  0  0
   -2.1958   -4.4918   -1.7728 N   0  0  0  0  0  0  0  0  0  0  0  0
   -2.0069   -5.1804   -0.5318 C   0  0  2  0  0  0  0  0  0  0  0  0
   -1.8243   -6.6491   -0.5627 C   0  0  0  0  0  0  0  0  0  0  0  0
   -2.8288   -7.3566   -1.1617 O   0  0  0  0  0  0  0  0  0  0  0  0
   -3.0658   -4.9040    0.5318 C   0  0  2  0  0  0  0  0  0  0  0  0
   -4.4565   -5.2674    0.1606 C   0  0  1  0  0  0  0  0  0  0  0  0
   -5.3776   -4.9801    1.3431 C   0  0  1  0  0  0  0  0  0  0  0  0
   -5.4053   -3.5501    1.7680 C   0  0  2  0  0  0  0  0  0  0  0  0
   -3.1849   -4.4925   -2.0245 H   0  0  0  0  0  0  0  0  0  0  0  0
   -1.0541   -4.7786   -0.0499 H   0  0  0  0  0  0  0  0  0  0  0  0
   -3.0201   -3.9220    0.9867 H   0  0  0  0  0  0  0  0  0  0  0  0
   -2.7781   -5.6165    1.3721 H   0  0  0  0  0  0  0  0  0  0  0  0
   -4.8942   -4.6985   -0.6837 H   0  0  0  0  0  0  0  0  0  0  0  0
   -4.5257   -6.3761   -0.0257 H   0  0  0  0  0  0  0  0  0  0  0  0
   -6.4313   -5.3013    1.1070 H   0  0  0  0  0  0  0  0  0  0  0  0
   -5.1072   -5.5788    2.2454 H   0  0  0  0  0  0  0  0  0  0  0  0
   -6.4126   -3.0831    1.6909 H   0  0  0  0  0  0  0  0  0  0  0  0
   -4.7567   -2.9247    1.1294 H   0  0  0  0  0  0  0  0  0  0  0  0
   -5.0898   -3.4107    2.8341 H   0  0  0  0  0  0  0  0  0  0  0  0
   -0.4735   -7.0792   -0.9176 N   0  0  0  0  0  0  0  0  0  0  0  0
   -0.2424   -8.3425   -0.1381 C   0  0  2  0  0  0  0  0  0  0  0  0
   -0.0969   -8.0162    1.2805 C   0  0  0  0  0  0  0  0  0  0  0  0
   -0.4757   -8.8137    2.1419 O   0  0  0  0  0  0  0  0  0  0  0  0
    0.8191   -9.1133   -0.8188 C   0  0  0  0  0  0  0  0  0  0  0  0
    2.0693   -8.3312   -0.8965 C   0  0  0  0  0  0  0  0  0  0  0  0
    2.2170   -7.4151   -1.9420 C   0  0  0  0  0  0  0  0  0  0  0  0
    3.0653   -8.5028    0.0124 C   0  0  0  0  0  0  0  0  0  0  0  0
    3.3958   -6.7078   -2.0041 C   0  0  0  0  0  0  0  0  0  0  0  0
    4.2498   -7.7871   -0.0559 C   0  0  0  0  0  0  0  0  0  0  0  0
    4.4072   -6.8744   -1.0875 C   0  0  0  0  0  0  0  0  0  0  0  0
    5.6033   -6.1483   -1.1567 O   0  0  0  0  0  0  0  0  0  0  0  0
    0.2530   -6.3866   -0.7323 H   0  0  0  0  0  0  0  0  0  0  0  0
   -1.2346   -8.8548   -0.2516 H   0  0  0  0  0  0  0  0  0  0  0  0
    0.5039   -9.2790   -1.8965 H   0  0  0  0  0  0  0  0  0  0  0  0
    1.0224  -10.1034   -0.3476 H   0  0  0  0  0  0  0  0  0  0  0  0
    1.4031   -7.3147   -2.6461 H   0  0  0  0  0  0  0  0  0  0  0  0
    2.8907   -9.2412    0.8008 H   0  0  0  0  0  0  0  0  0  0  0  0
    3.5414   -5.9886   -2.8058 H   0  0  0  0  0  0  0  0  0  0  0  0
    5.0365   -7.9243    0.6648 H   0  0  0  0  0  0  0  0  0  0  0  0
    5.8171   -5.7282   -2.0492 H   0  0  0  0  0  0  0  0  0  0  0  0
    0.4910   -6.8019    1.8099 N   0  0  0  0  0  0  0  0  0  0  0  0
    0.4246   -6.4094    3.1928 C   0  0  2  0  0  0  0  0  0  0  0  0
    0.9519   -5.0267    3.4327 C   0  0  0  0  0  0  0  0  0  0  0  0
    0.7947   -4.7583    4.8002 O   0  0  0  0  0  0  0  0  0  0  0  0
    1.1553   -7.4132    4.0982 C   0  0  2  0  0  0  0  0  0  0  0  0
    2.5945   -7.5852    3.8196 C   0  0  1  0  0  0  0  0  0  0  0  0
    3.1469   -8.6090    4.7841 N   0  0  2  0  0  0  0  0  0  0  0  0
    0.9830   -6.2601    1.0973 H   0  0  0  0  0  0  0  0  0  0  0  0
   -0.6231   -6.5014    3.5628 H   0  0  0  0  0  0  0  0  0  0  0  0
    0.5722   -8.3349    4.0926 H   0  0  0  0  0  0  0  0  0  0  0  0
    1.0392   -6.9899    5.1289 H   0  0  0  0  0  0  0  0  0  0  0  0
    2.7383   -8.0054    2.8086 H   0  0  0  0  0  0  0  0  0  0  0  0
    3.2084   -6.6850    3.9219 H   0  0  0  0  0  0  0  0  0  0  0  0
    2.9342   -9.5836    4.3796 H   0  0  0  0  0  0  0  0  0  0  0  0
    2.6231   -8.4925    5.7187 H   0  0  0  0  0  0  0  0  0  0  0  0
    4.1844   -8.4520    4.8967 H   0  0  0  0  0  0  0  0  0  0  0  0
    0.3792   -4.0759    2.5754 N   0  0  0  0  0  0  0  0  0  0  0  0
    0.8465   -2.7368    2.5753 C   0  0  2  0  0  0  0  0  0  0  0  0
    2.3018   -2.5649    2.2792 C   0  0  0  0  0  0  0  0  0  0  0  0
    3.1722   -3.4244    2.3497 O   0  0  0  0  0  0  0  0  0  0  0  0
    0.4031   -1.8475    3.6955 C   0  0  0  0  0  0  0  0  0  0  0  0
   -1.3152   -1.3523    3.7175 S   0  0  0  0  0  0  0  0  0  0  0  0
    0.4785   -4.4448    1.5922 H   0  0  0  0  0  0  0  0  0  0  0  0
    0.3521   -2.2688    1.6646 H   0  0  0  0  0  0  0  0  0  0  0  0
    0.7197   -2.2449    4.6962 H   0  0  0  0  0  0  0  0  0  0  0  0
    1.0708   -0.9182    3.6008 H   0  0  0  0  0  0  0  0  0  0  0  0
    2.7128   -1.2763    1.8653 N   0  0  0  0  0  0  0  0  0  0  0  0
    4.1274   -0.9059    1.5889 C   0  0  2  0  0  0  0  0  0  0  0  0
    4.1449    0.5385    1.8314 C   0  0  0  0  0  0  0  0  0  0  0  0
    3.0475    0.9725    2.3821 O   0  0  0  0  0  0  0  0  0  0  0  0
    4.4119   -1.1292    0.1085 C   0  0  2  0  0  0  0  0  0  0  0  0
    4.1743   -2.5512   -0.3341 C   0  0  0  0  0  0  0  0  0  0  0  0
    5.8849   -0.8483   -0.1306 C   0  0  0  0  0  0  0  0  0  0  0  0
    4.5054   -2.6283   -1.8167 C   0  0  0  0  0  0  0  0  0  0  0  0
    1.9777   -0.5802    1.7488 H   0  0  0  0  0  0  0  0  0  0  0  0
    4.7695   -1.5551    2.1578 H   0  0  0  0  0  0  0  0  0  0  0  0
    3.7740   -0.4694   -0.4824 H   0  0  0  0  0  0  0  0  0  0  0  0
    4.7981   -3.2995    0.1616 H   0  0  0  0  0  0  0  0  0  0  0  0
    3.0759   -2.7729   -0.2848 H   0  0  0  0  0  0  0  0  0  0  0  0
    6.0418    0.0935   -0.6748 H   0  0  0  0  0  0  0  0  0  0  0  0
    6.4467   -0.8178    0.8237 H   0  0  0  0  0  0  0  0  0  0  0  0
    6.3784   -1.6833   -0.7081 H   0  0  0  0  0  0  0  0  0  0  0  0
    4.5762   -1.5959   -2.1973 H   0  0  0  0  0  0  0  0  0  0  0  0
    5.5076   -3.0784   -1.9856 H   0  0  0  0  0  0  0  0  0  0  0  0
    3.7172   -3.1234   -2.4130 H   0  0  0  0  0  0  0  0  0  0  0  0
    5.0702    1.5498    1.5971 N   0  0  0  0  0  0  0  0  0  0  0  0
    4.5936    2.9104    2.0065 C   0  0  2  0  0  0  0  0  0  0  0  0
    3.4184    3.1396    1.0461 C   0  0  0  0  0  0  0  0  0  0  0  0
    3.1633    2.3414    0.1386 O   0  0  0  0  0  0  0  0  0  0  0  0
    5.5783    3.9667    1.8501 C   0  0  0  0  0  0  0  0  0  0  0  0
    6.0920    4.2016    0.4386 C   0  0  0  0  0  0  0  0  0  0  0  0
    7.0854    5.3285    0.5184 C   0  0  0  0  0  0  0  0  0  0  0  0
    7.6279    5.6322   -0.7692 N   0  0  0  0  0  0  0  0  0  0  0  0
    8.4965    4.8204   -1.5211 C   0  0  0  0  0  0  0  0  0  0  0  0
    8.9423    5.3091   -2.8033 N   0  0  0  0  0  0  0  0  0  0  0  0
    8.9183    3.6709   -1.1144 N   0  0  0  0  0  0  0  0  0  0  0  0
    5.9689    1.4466    1.2087 H   0  0  0  0  0  0  0  0  0  0  0  0
    4.1171    2.8430    2.9832 H   0  0  0  0  0  0  0  0  0  0  0  0
    6.5269    3.7977    2.4518 H   0  0  0  0  0  0  0  0  0  0  0  0
    5.1645    4.9414    2.2082 H   0  0  0  0  0  0  0  0  0  0  0  0
    5.2618    4.5925   -0.2151 H   0  0  0  0  0  0  0  0  0  0  0  0
    6.4679    3.2449    0.0869 H   0  0  0  0  0  0  0  0  0  0  0  0
    6.6265    6.2505    0.9366 H   0  0  0  0  0  0  0  0  0  0  0  0
    7.9052    5.0874    1.2470 H   0  0  0  0  0  0  0  0  0  0  0  0
    7.3529    6.5525   -1.2010 H   0  0  0  0  0  0  0  0  0  0  0  0
    8.9363    4.7218   -3.6617 H   0  0  0  0  0  0  0  0  0  0  0  0
    9.2971    6.3055   -2.8962 H   0  0  0  0  0  0  0  0  0  0  0  0
    8.6921    3.2120   -0.2282 H   0  0  0  0  0  0  0  0  0  0  0  0
    9.5604    3.1497   -1.7533 H   0  0  0  0  0  0  0  0  0  0  0  0
    2.5678    4.2638    1.1480 N   0  0  0  0  0  0  0  0  0  0  0  0
    1.4033    4.3871    0.2488 C   0  0  2  0  0  0  0  0  0  0  0  0
    1.2930    5.6487   -0.4357 C   0  0  0  0  0  0  0  0  0  0  0  0
    2.1209    6.5775   -0.1402 O   0  0  0  0  0  0  0  0  0  0  0  0
    0.1437    4.1200    1.1029 C   0  0  0  0  0  0  0  0  0  0  0  0
   -1.3535    4.3470    0.2099 S   0  0  0  0  0  0  0  0  0  0  0  0
    2.8110    4.9506    1.8573 H   0  0  0  0  0  0  0  0  0  0  0  0
    1.4454    3.5510   -0.5080 H   0  0  0  0  0  0  0  0  0  0  0  0
    0.2514    4.8616    1.9492 H   0  0  0  0  0  0  0  0  0  0  0  0
    0.2938    3.0998    1.5508 H   0  0  0  0  0  0  0  0  0  0  0  0
    0.3350    5.9265   -1.4157 N   0  0  0  0  0  0  0  0  0  0  0  0
    0.2116    7.2048   -2.1205 C   0  0  2  0  0  0  0  0  0  0  0  0
   -0.8205    8.0475   -1.5303 C   0  0  0  0  0  0  0  0  0  0  0  0
   -1.4768    7.5629   -0.5455 O   0  0  0  0  0  0  0  0  0  0  0  0
    0.1189    6.8582   -3.5563 C   0  0  0  0  0  0  0  0  0  0  0  0
   -0.0270    7.9278   -4.5324 C   0  0  0  0  0  0  0  0  0  0  0  0
   -1.3305    8.2356   -4.9572 C   0  0  0  0  0  0  0  0  0  0  0  0
    1.0088    8.6605   -5.0687 C   0  0  0  0  0  0  0  0  0  0  0  0
   -1.5770    9.2318   -5.8756 C   0  0  0  0  0  0  0  0  0  0  0  0
    0.7677    9.6664   -5.9942 C   0  0  0  0  0  0  0  0  0  0  0  0
   -0.5298    9.9503   -6.3978 C   0  0  0  0  0  0  0  0  0  0  0  0
   -0.7734   10.9641   -7.3358 O   0  0  0  0  0  0  0  0  0  0  0  0
   -0.3635    5.2023   -1.7403 H   0  0  0  0  0  0  0  0  0  0  0  0
    1.2110    7.7026   -1.9353 H   0  0  0  0  0  0  0  0  0  0  0  0
    1.0917    6.3328   -3.8125 H   0  0  0  0  0  0  0  0  0  0  0  0
   -0.6399    6.0302   -3.7460 H   0  0  0  0  0  0  0  0  0  0  0  0
   -2.1660    7.6697   -4.5486 H   0  0  0  0  0  0  0  0  0  0  0  0
    2.0099    8.4156   -4.7338 H   0  0  0  0  0  0  0  0  0  0  0  0
   -2.6094    9.4081   -6.1510 H   0  0  0  0  0  0  0  0  0  0  0  0
    1.5966   10.2292   -6.3947 H   0  0  0  0  0  0  0  0  0  0  0  0
   -1.6909   11.0217   -7.7729 H   0  0  0  0  0  0  0  0  0  0  0  0
   -1.1769    9.3573   -1.9278 N   0  0  0  0  0  0  0  0  0  0  0  0
   -2.2149   10.0771   -1.2230 C   0  0  2  0  0  0  0  0  0  0  0  0
   -3.4604   10.2687   -1.9891 C   0  0  0  0  0  0  0  0  0  0  0  0
   -4.3938   10.8938   -1.3901 O   0  0  0  0  0  0  0  0  0  0  0  0
   -1.6131   11.3717   -0.7161 C   0  0  0  0  0  0  0  0  0  0  0  0
   -0.6786    9.7959   -2.7050 H   0  0  0  0  0  0  0  0  0  0  0  0
   -2.5119    9.4750   -0.3247 H   0  0  0  0  0  0  0  0  0  0  0  0
   -1.9160   12.1682   -1.4374 H   0  0  0  0  0  0  0  0  0  0  0  0
   -2.0479   11.5851    0.2710 H   0  0  0  0  0  0  0  0  0  0  0  0
   -0.5165   11.2740   -0.7109 H   0  0  0  0  0  0  0  0  0  0  0  0
   -3.6699    9.8104   -3.3149 N   0  0  0  0  0  0  0  0  0  0  0  0
   -3.4609   10.5145   -4.0814 H   0  0  0  0  0  0  0  0  0  0  0  0
   -4.0008    8.8606   -3.5676 H   0  0  0  0  0  0  0  0  0  0  0  0
   -1.9813    2.2158    2.9869 H   0  0  0  0  0  0  0  0  0  0  0  0
   -3.3893    0.1481    3.5464 H   0  0  0  0  0  0  0  0  0  0  0  0
   -3.5427   -0.9444    1.0185 H   0  0  0  0  0  0  0  0  0  0  0  0
   -4.2030    0.6420   -0.4286 H   0  0  0  0  0  0  0  0  0  0  0  0
   -4.8785    2.7779   -0.0672 H   0  0  0  0  0  0  0  0  0  0  0  0
   -2.5161    1.9581    0.4773 H   0  0  0  0  0  0  0  0  0  0  0  0
   -6.3694   -0.4122    1.0293 H   0  0  0  0  0  0  0  0  0  0  0  0
   -7.5658    1.2165    1.5252 H   0  0  0  0  0  0  0  0  0  0  0  0
   -0.5172   -3.4204   -2.1393 H   0  0  0  0  0  0  0  0  0  0  0  0
   -1.9767   -2.1754   -0.1421 H   0  0  0  0  0  0  0  0  0  0  0  0
   -1.8855   -6.9553    0.5530 H   0  0  0  0  0  0  0  0  0  0  0  0
   -2.4524   -8.0726   -1.7256 H   0  0  0  0  0  0  0  0  0  0  0  0
    2.0750   -5.1584    3.2475 H   0  0  0  0  0  0  0  0  0  0  0  0
   -0.1278   -4.9891    5.0607 H   0  0  0  0  0  0  0  0  0  0  0  0
  1  2  1  0
  1 11  1  1
  1 12  1  0
  1 13  1  0
  2  3  1  0
  2  7  1  0
  3  4  1  0
  3 10  1  0
  4  5  1  0
  4 14  1  0
  5  6  1  0
  5  9  1  0
  6  7  1  0
  6 15  1  0
  7  8  1  0
  8 16  1  1
  8 17  1  0
  8171  1  0
  9 19  1  0
  9 21  1  0
 10 18  1  6
 10 20  1  0
 10118  1  0
 23 38  1  0
 38 39  1  0
 38 46  1  0
 39 40  1  0
 39 44  1  0
 39 47  1  6
 40 41  1  0
 40 48  1  1
 40 49  1  0
 41 42  1  0
 41 50  1  6
 41 51  1  0
 42 43  1  0
 42 52  1  6
 42 53  1  0
 43 54  1  1
 43 55  1  0
 44 45  1  0
 44 57  1  0
 57 58  1  0
 57 65  1  0
 58 59  1  0
 58 61  1  0
 58 66  1  1
 59 60  1  0
 59 76  1  0
 61 62  1  0
 61 67  1  1
 61 68  1  0
 62 63  1  0
 62 69  1  6
 62 70  1  0
 63 64  1  0
 63 71  1  6
 63 72  1  0
 64 73  1  1
 64 74  1  0
 64 75  1  0
 78 97  1  0
 97 98  1  0
 97104  1  0
 98 99  1  0
 98101  1  0
 98105  1  1
 99100  1  0
 99113  1  0
101102  1  0
101106  1  1
101107  1  0
102103  1  0
102108  1  6
102109  1  0
103110  1  6
103111  1  0
199207  1  0
207208  1  0
207209  1  0
 22 21  1  0
 23 22  1  0
 24 23  2  0
 25 22  1  0
 26 25  1  0
 27 26  1  0
 28 26  2  0
 29 27  2  0
 30 28  1  0
 30 29  1  0
 31 21  1  0
 22 32  1  1
 33 25  1  0
 34 25  1  0
 35 28  1  0
 36 29  1  0
 37 30  1  0
 56 43  1  0
 77 76  1  0
 78 77  1  0
 79 78  2  0
 80 77  1  0
 81 80  1  0
 82 81  2  0
 83 81  1  0
 84 82  1  0
 85 83  2  0
 86 85  1  0
 86 84  2  0
 87 86  1  0
 88 76  1  0
 77 89  1  1
 90 80  1  0
 91 80  1  0
 92 82  1  0
 93 83  1  0
 94 84  1  0
 95 85  1  0
 96 87  1  0
112103  1  0
114113  1  0
115114  1  0
116115  2  0
117114  1  0
118117  1  0
119113  1  0
114120  1  6
121117  1  0
122117  1  0
123115  1  0
124123  1  0
125124  1  0
126125  2  0
127124  1  0
128127  1  0
129127  1  0
130128  1  0
131123  1  0
124132  1  1
127133  1  6
134128  1  0
135128  1  0
136129  1  0
137129  1  0
138129  1  0
139130  1  0
140130  1  0
141130  1  0
142125  1  0
143142  1  0
144143  1  0
145144  2  0
146143  1  0
147146  1  0
148147  1  0
149148  1  0
150149  1  0
151150  1  0
152150  2  0
153142  1  0
143154  1  1
155146  1  0
156146  1  0
157147  1  0
158147  1  0
159148  1  0
160148  1  0
161149  1  0
162151  1  0
163151  1  0
164152  1  0
165152  1  0
166144  1  0
167166  1  0
168167  1  0
169168  2  0
170167  1  0
171170  1  0
172166  1  0
167173  1  6
174170  1  0
175170  1  0
176168  1  0
177176  1  0
178177  1  0
179178  2  0
180177  1  0
181180  1  0
182181  2  0
183181  1  0
184182  1  0
185183  2  0
186185  1  0
186184  2  0
187186  1  0
188176  1  0
177189  1  6
190180  1  0
191180  1  0
192182  1  0
193183  1  0
194184  1  0
195185  1  0
196187  1  0
197178  1  0
198197  1  0
199198  1  0
200199  2  0
201198  1  0
202197  1  0
198203  1  1
204201  1  0
205201  1  0
206201  1  0
  2210  1  1
  3211  1  1
  4212  1  0
  5213  1  0
  6214  1  0
  7215  1  0
  9216  1  0
 19217  1  0
 44218  1  0
 45219  1  0
 59220  1  0
 60221  1  0
 99222  1  0
100223  1  0
M  CHG  3  43   1 103   1 152   1
M  END
$$$$
BP70
     RDKit          3D

223228  0  0  0  0  0  0  0  0999 V2000
   -7.0029   -0.6538    1.0972 C   0  0  2  0  0  0  0  0  0  0  0  0
   -5.5126   -0.8831    1.4047 C   0  0  1  0  0  0  0  0  0  0  0  0
   -5.1244   -0.2103    2.6844 C   0  0  1  0  0  0  0  0  0  0  0  0
   -4.4671   -1.0676    3.7067 C   0  0  0  0  0  0  0  0  0  0  0  0
   -3.6330   -2.2401    3.2918 C   0  0  0  0  0  0  0  0  0  0  0  0
   -3.9514   -2.6965    1.8778 C   0  0  0  0  0  0  0  0  0  0  0  0
   -5.3150   -2.3746    1.4539 C   0  0  0  0  0  0  0  0  0  0  0  0
   -5.7956   -3.0287    0.2251 C   0  0  2  0  0  0  0  0  0  0  0  0
   -2.1599   -2.0325    3.4729 C   0  0  0  0  0  0  0  0  0  0  0  0
   -4.3975    1.0802    2.3890 C   0  0  1  0  0  0  0  0  0  0  0  0
   -7.2167   -0.5634    0.0368 H   0  0  0  0  0  0  0  0  0  0  0  0
   -7.2536    0.3346    1.5725 H   0  0  0  0  0  0  0  0  0  0  0  0
   -7.6240   -1.3820    1.6566 H   0  0  0  0  0  0  0  0  0  0  0  0
   -5.2927   -1.4300    4.4051 H   0  0  0  0  0  0  0  0  0  0  0  0
   -3.7766   -3.7757    1.7719 H   0  0  0  0  0  0  0  0  0  0  0  0
   -6.8599   -2.5541    0.0147 H   0  0  0  0  0  0  0  0  0  0  0  0
   -6.2151   -4.0895    0.5160 H   0  0  0  0  0  0  0  0  0  0  0  0
   -4.0240    1.4533    3.4010 H   0  0  0  0  0  0  0  0  0  0  0  0
   -1.9144   -0.6444    3.3714 O   0  0  0  0  0  0  0  0  0  0  0  0
   -3.5193    0.9188    1.7254 H   0  0  0  0  0  0  0  0  0  0  0  0
   -1.2224   -2.7272    2.6210 N   0  0  0  0  0  0  0  0  0  0  0  0
    0.1207   -2.2880    3.0474 C   0  0  2  0  0  0  0  0  0  0  0  0
    1.0807   -2.2169    1.8527 C   0  0  0  0  0  0  0  0  0  0  0  0
    0.9820   -2.9451    0.8771 O   0  0  0  0  0  0  0  0  0  0  0  0
    0.7450   -3.3525    3.9742 C   0  0  0  0  0  0  0  0  0  0  0  0
    0.0095   -3.6706    5.1723 C   0  0  0  0  0  0  0  0  0  0  0  0
    0.0604   -3.1070    6.3682 N   0  0  0  0  0  0  0  0  0  0  0  0
   -0.9185   -4.7207    5.2815 C   0  0  0  0  0  0  0  0  0  0  0  0
   -0.7754   -3.7525    7.1797 C   0  0  0  0  0  0  0  0  0  0  0  0
   -1.4012   -4.7568    6.5476 N   0  0  0  0  0  0  0  0  0  0  0  0
   -1.2669   -3.7375    2.8497 H   0  0  0  0  0  0  0  0  0  0  0  0
    0.0995   -1.3626    3.5951 H   0  0  0  0  0  0  0  0  0  0  0  0
    1.7448   -2.9058    4.2367 H   0  0  0  0  0  0  0  0  0  0  0  0
    0.9188   -4.2518    3.3427 H   0  0  0  0  0  0  0  0  0  0  0  0
   -1.2395   -5.4189    4.5367 H   0  0  0  0  0  0  0  0  0  0  0  0
   -0.9206   -3.4804    8.2362 H   0  0  0  0  0  0  0  0  0  0  0  0
   -2.1117   -5.4396    6.9098 H   0  0  0  0  0  0  0  0  0  0  0  0
    2.1363   -1.2598    1.8345 N   0  0  0  0  0  0  0  0  0  0  0  0
    3.0962   -0.9807    0.7785 C   0  0  1  0  0  0  0  0  0  0  0  0
    2.6474   -1.2637   -0.6039 C   0  0  2  0  0  0  0  0  0  0  0  0
    3.6683   -1.0127   -1.6677 C   0  0  2  0  0  0  0  0  0  0  0  0
    3.1675   -1.3630   -3.0590 C   0  0  1  0  0  0  0  0  0  0  0  0
    2.8094   -2.7854   -3.1467 N   0  0  2  0  0  0  0  0  0  0  0  0
    3.7467    0.3391    1.0698 C   0  0  0  0  0  0  0  0  0  0  0  0
    4.5783    0.3227    2.1779 O   0  0  0  0  0  0  0  0  0  0  0  0
    2.2144   -0.7061    2.7004 H   0  0  0  0  0  0  0  0  0  0  0  0
    3.8884   -1.7938    0.9454 H   0  0  0  0  0  0  0  0  0  0  0  0
    1.6525   -0.8920   -0.8707 H   0  0  0  0  0  0  0  0  0  0  0  0
    2.5065   -2.3984   -0.6547 H   0  0  0  0  0  0  0  0  0  0  0  0
    4.6050   -1.5807   -1.5108 H   0  0  0  0  0  0  0  0  0  0  0  0
    3.9249    0.0486   -1.7488 H   0  0  0  0  0  0  0  0  0  0  0  0
    2.3229   -0.7598   -3.4041 H   0  0  0  0  0  0  0  0  0  0  0  0
    4.0109   -1.2136   -3.7557 H   0  0  0  0  0  0  0  0  0  0  0  0
    2.8659   -3.0715   -4.1910 H   0  0  0  0  0  0  0  0  0  0  0  0
    1.8177   -2.9219   -2.8039 H   0  0  0  0  0  0  0  0  0  0  0  0
    3.5166   -3.3600   -2.5893 H   0  0  0  0  0  0  0  0  0  0  0  0
    4.0767    1.2558    0.1017 N   0  0  0  0  0  0  0  0  0  0  0  0
    4.7575    2.4583    0.2552 C   0  0  2  0  0  0  0  0  0  0  0  0
    4.3355    3.6312    1.0267 C   0  0  0  0  0  0  0  0  0  0  0  0
    4.3189    3.0628    2.4005 O   0  0  0  0  0  0  0  0  0  0  0  0
    5.4689    2.8483   -1.0237 C   0  0  2  0  0  0  0  0  0  0  0  0
    6.5239    1.8529   -1.4363 C   0  0  1  0  0  0  0  0  0  0  0  0
    7.1489    2.3597   -2.7296 C   0  0  1  0  0  0  0  0  0  0  0  0
    8.2270    1.3822   -3.2066 C   0  0  2  0  0  0  0  0  0  0  0  0
    3.1290    1.5820   -0.3480 H   0  0  0  0  0  0  0  0  0  0  0  0
    5.7414    2.0592    0.8702 H   0  0  0  0  0  0  0  0  0  0  0  0
    5.9325    3.8411   -0.9661 H   0  0  0  0  0  0  0  0  0  0  0  0
    4.7524    2.8731   -1.8861 H   0  0  0  0  0  0  0  0  0  0  0  0
    7.2947    1.7310   -0.6466 H   0  0  0  0  0  0  0  0  0  0  0  0
    6.0469    0.8929   -1.6699 H   0  0  0  0  0  0  0  0  0  0  0  0
    6.3864    2.5173   -3.5099 H   0  0  0  0  0  0  0  0  0  0  0  0
    7.6704    3.3381   -2.5901 H   0  0  0  0  0  0  0  0  0  0  0  0
    7.9265    0.3399   -2.9827 H   0  0  0  0  0  0  0  0  0  0  0  0
    9.1752    1.6903   -2.7230 H   0  0  0  0  0  0  0  0  0  0  0  0
    8.3472    1.5521   -4.2852 H   0  0  0  0  0  0  0  0  0  0  0  0
    3.3090    4.4663    0.8997 N   0  0  0  0  0  0  0  0  0  0  0  0
    2.8057    5.4796    0.0514 C   0  0  2  0  0  0  0  0  0  0  0  0
    1.5055    5.9830    0.5427 C   0  0  0  0  0  0  0  0  0  0  0  0
    1.2226    5.5229    1.7225 O   0  0  0  0  0  0  0  0  0  0  0  0
    2.8899    5.2479   -1.3953 C   0  0  0  0  0  0  0  0  0  0  0  0
    2.3543    6.2484   -2.3355 C   0  0  0  0  0  0  0  0  0  0  0  0
    1.1259    6.1195   -2.9708 C   0  0  0  0  0  0  0  0  0  0  0  0
    3.1137    7.3762   -2.6007 C   0  0  0  0  0  0  0  0  0  0  0  0
    0.6999    7.1011   -3.8339 C   0  0  0  0  0  0  0  0  0  0  0  0
    2.7046    8.3705   -3.4629 C   0  0  0  0  0  0  0  0  0  0  0  0
    1.4694    8.2195   -4.0868 C   0  0  0  0  0  0  0  0  0  0  0  0
    1.0272    9.2254   -4.9725 O   0  0  0  0  0  0  0  0  0  0  0  0
    2.9509    4.7551    1.8811 H   0  0  0  0  0  0  0  0  0  0  0  0
    3.5848    6.3566    0.2554 H   0  0  0  0  0  0  0  0  0  0  0  0
    3.9699    5.0610   -1.7213 H   0  0  0  0  0  0  0  0  0  0  0  0
    2.3931    4.2726   -1.6893 H   0  0  0  0  0  0  0  0  0  0  0  0
    0.5787    5.2257   -2.7291 H   0  0  0  0  0  0  0  0  0  0  0  0
    4.0853    7.5223   -2.1209 H   0  0  0  0  0  0  0  0  0  0  0  0
   -0.2604    6.9839   -4.3172 H   0  0  0  0  0  0  0  0  0  0  0  0
    3.3193    9.2335   -3.6444 H   0  0  0  0  0  0  0  0  0  0  0  0
    0.4105    9.0288   -5.7412 H   0  0  0  0  0  0  0  0  0  0  0  0
    0.5126    6.8172    0.0787 N   0  0  0  0  0  0  0  0  0  0  0  0
   -0.7520    6.9295    0.9248 C   0  0  2  0  0  0  0  0  0  0  0  0
   -1.6617    5.8467    0.3879 C   0  0  0  0  0  0  0  0  0  0  0  0
   -0.9050    4.6715    0.5073 O   0  0  0  0  0  0  0  0  0  0  0  0
   -1.3484    8.2703    0.8242 C   0  0  2  0  0  0  0  0  0  0  0  0
   -2.6013    8.4832    1.6488 C   0  0  1  0  0  0  0  0  0  0  0  0
   -3.0153    9.9187    1.4409 N   0  0  2  0  0  0  0  0  0  0  0  0
    0.4987    7.3972   -0.7255 H   0  0  0  0  0  0  0  0  0  0  0  0
   -0.5253    6.5884    1.9544 H   0  0  0  0  0  0  0  0  0  0  0  0
   -1.6672    8.5118   -0.2392 H   0  0  0  0  0  0  0  0  0  0  0  0
   -0.6191    9.1085    1.0300 H   0  0  0  0  0  0  0  0  0  0  0  0
   -3.4692    7.8959    1.2992 H   0  0  0  0  0  0  0  0  0  0  0  0
   -2.4716    8.2881    2.7188 H   0  0  0  0  0  0  0  0  0  0  0  0
   -4.0409   10.0085    1.6903 H   0  0  0  0  0  0  0  0  0  0  0  0
   -2.8259   10.1575    0.4291 H   0  0  0  0  0  0  0  0  0  0  0  0
   -2.4022   10.5140    2.1016 H   0  0  0  0  0  0  0  0  0  0  0  0
   -2.9522    5.6666    0.9877 N   0  0  0  0  0  0  0  0  0  0  0  0
   -3.4491    4.2953    0.7020 C   0  0  2  0  0  0  0  0  0  0  0  0
   -3.6668    4.2444   -0.7634 C   0  0  0  0  0  0  0  0  0  0  0  0
   -3.6968    5.2355   -1.4979 O   0  0  0  0  0  0  0  0  0  0  0  0
   -4.5648    4.0149    1.5973 C   0  0  0  0  0  0  0  0  0  0  0  0
   -5.3210    2.4173    1.6932 S   0  0  0  0  0  0  0  0  0  0  0  0
   -2.7819    5.6577    2.0335 H   0  0  0  0  0  0  0  0  0  0  0  0
   -2.5914    3.6216    0.9815 H   0  0  0  0  0  0  0  0  0  0  0  0
   -5.4301    4.7521    1.4454 H   0  0  0  0  0  0  0  0  0  0  0  0
   -4.2334    4.2828    2.6387 H   0  0  0  0  0  0  0  0  0  0  0  0
   -3.8544    2.9899   -1.3904 N   0  0  0  0  0  0  0  0  0  0  0  0
   -3.8806    2.6672   -2.7857 C   0  0  2  0  0  0  0  0  0  0  0  0
   -3.0232    1.4562   -2.9945 C   0  0  0  0  0  0  0  0  0  0  0  0
   -2.8429    0.8454   -4.0276 O   0  0  0  0  0  0  0  0  0  0  0  0
   -3.3804    3.8195   -3.6548 C   0  0  2  0  0  0  0  0  0  0  0  0
   -3.4287    3.4087   -5.1231 C   0  0  0  0  0  0  0  0  0  0  0  0
   -1.9654    4.1728   -3.3672 C   0  0  0  0  0  0  0  0  0  0  0  0
   -4.8164    3.0333   -5.5748 C   0  0  0  0  0  0  0  0  0  0  0  0
   -4.0621    2.2200   -0.7209 H   0  0  0  0  0  0  0  0  0  0  0  0
   -4.8790    2.4866   -3.1474 H   0  0  0  0  0  0  0  0  0  0  0  0
   -4.1215    4.6352   -3.5918 H   0  0  0  0  0  0  0  0  0  0  0  0
   -2.6638    2.6476   -5.2933 H   0  0  0  0  0  0  0  0  0  0  0  0
   -3.1122    4.3075   -5.7465 H   0  0  0  0  0  0  0  0  0  0  0  0
   -1.6742    3.6796   -2.4187 H   0  0  0  0  0  0  0  0  0  0  0  0
   -1.2410    3.7289   -4.1176 H   0  0  0  0  0  0  0  0  0  0  0  0
   -1.7218    5.2493   -3.3904 H   0  0  0  0  0  0  0  0  0  0  0  0
   -5.0388    3.4203   -6.6077 H   0  0  0  0  0  0  0  0  0  0  0  0
   -4.8332    1.9141   -5.7108 H   0  0  0  0  0  0  0  0  0  0  0  0
   -5.5916    3.3389   -4.8489 H   0  0  0  0  0  0  0  0  0  0  0  0
   -2.3436    0.9706   -1.8503 N   0  0  0  0  0  0  0  0  0  0  0  0
   -1.3980   -0.1244   -1.7377 C   0  0  2  0  0  0  0  0  0  0  0  0
   -2.1957   -1.4196   -1.5280 C   0  0  0  0  0  0  0  0  0  0  0  0
   -3.3620   -1.2649   -1.2646 O   0  0  0  0  0  0  0  0  0  0  0  0
   -0.9266    0.0590   -0.2659 C   0  0  0  0  0  0  0  0  0  0  0  0
   -0.2473    1.3405    0.0349 C   0  0  0  0  0  0  0  0  0  0  0  0
   -0.1046    1.3465    1.5719 C   0  0  0  0  0  0  0  0  0  0  0  0
    0.6453    2.4405    2.0861 N   0  0  0  0  0  0  0  0  0  0  0  0
    0.9172    2.6195    3.4677 C   0  0  0  0  0  0  0  0  0  0  0  0
    1.6252    3.6854    4.0477 N   0  0  0  0  0  0  0  0  0  0  0  0
    0.4652    1.7319    4.3257 N   0  0  0  0  0  0  0  0  0  0  0  0
   -2.5453    1.4754   -0.9732 H   0  0  0  0  0  0  0  0  0  0  0  0
   -0.6776   -0.2486   -2.4877 H   0  0  0  0  0  0  0  0  0  0  0  0
   -1.8840    0.1215    0.3049 H   0  0  0  0  0  0  0  0  0  0  0  0
   -0.4649   -0.8599    0.0506 H   0  0  0  0  0  0  0  0  0  0  0  0
   -0.8122    2.1621   -0.3589 H   0  0  0  0  0  0  0  0  0  0  0  0
    0.7918    1.2586   -0.3210 H   0  0  0  0  0  0  0  0  0  0  0  0
    0.2728    0.4083    1.8783 H   0  0  0  0  0  0  0  0  0  0  0  0
   -1.1775    1.5132    1.9765 H   0  0  0  0  0  0  0  0  0  0  0  0
    1.0340    3.0995    1.3846 H   0  0  0  0  0  0  0  0  0  0  0  0
    1.0852    4.5627    4.2476 H   0  0  0  0  0  0  0  0  0  0  0  0
    2.6240    3.7048    4.3176 H   0  0  0  0  0  0  0  0  0  0  0  0
   -0.0541    0.9696    3.9230 H   0  0  0  0  0  0  0  0  0  0  0  0
    0.6236    1.7931    5.3459 H   0  0  0  0  0  0  0  0  0  0  0  0
   -1.6511   -2.7054   -1.6390 N   0  0  0  0  0  0  0  0  0  0  0  0
   -2.2800   -3.9212   -1.1981 C   0  0  2  0  0  0  0  0  0  0  0  0
   -1.4580   -5.1069   -1.0197 C   0  0  0  0  0  0  0  0  0  0  0  0
   -2.0103   -6.1061   -0.4480 O   0  0  0  0  0  0  0  0  0  0  0  0
   -3.6744   -4.1939   -1.7323 C   0  0  0  0  0  0  0  0  0  0  0  0
   -5.0020   -3.1902   -1.2795 S   0  0  0  0  0  0  0  0  0  0  0  0
   -0.7237   -2.7611   -2.0864 H   0  0  0  0  0  0  0  0  0  0  0  0
   -2.5618   -3.6495   -0.1243 H   0  0  0  0  0  0  0  0  0  0  0  0
   -3.8342   -5.3106   -1.5958 H   0  0  0  0  0  0  0  0  0  0  0  0
   -3.5385   -4.1358   -2.8601 H   0  0  0  0  0  0  0  0  0  0  0  0
   -0.1095   -5.3022   -1.3953 N   0  0  0  0  0  0  0  0  0  0  0  0
    0.4815   -6.5943   -1.0421 C   0  0  2  0  0  0  0  0  0  0  0  0
    1.8081   -6.3111   -0.4632 C   0  0  0  0  0  0  0  0  0  0  0  0
    2.2922   -5.1676   -0.6913 O   0  0  0  0  0  0  0  0  0  0  0  0
    0.5179   -7.4998   -2.2540 C   0  0  0  0  0  0  0  0  0  0  0  0
    1.0889   -8.8220   -1.9544 C   0  0  0  0  0  0  0  0  0  0  0  0
    2.4119   -9.1754   -2.1002 C   0  0  0  0  0  0  0  0  0  0  0  0
    0.1924   -9.7932   -1.4871 C   0  0  0  0  0  0  0  0  0  0  0  0
    2.7782  -10.4741   -1.7748 C   0  0  0  0  0  0  0  0  0  0  0  0
    0.5837  -11.0685   -1.1722 C   0  0  0  0  0  0  0  0  0  0  0  0
    1.8973  -11.4191   -1.3164 C   0  0  0  0  0  0  0  0  0  0  0  0
    2.2663  -12.7237   -0.9866 O   0  0  0  0  0  0  0  0  0  0  0  0
    0.3752   -4.5464   -1.8854 H   0  0  0  0  0  0  0  0  0  0  0  0
   -0.1215   -7.1336   -0.2965 H   0  0  0  0  0  0  0  0  0  0  0  0
   -0.5244   -7.6274   -2.6434 H   0  0  0  0  0  0  0  0  0  0  0  0
    1.1358   -6.9885   -3.0385 H   0  0  0  0  0  0  0  0  0  0  0  0
    3.0979   -8.4331   -2.4581 H   0  0  0  0  0  0  0  0  0  0  0  0
   -0.8574   -9.5497   -1.3565 H   0  0  0  0  0  0  0  0  0  0  0  0
    3.8211  -10.7437   -1.8924 H   0  0  0  0  0  0  0  0  0  0  0  0
   -0.1629  -11.7835   -0.8060 H   0  0  0  0  0  0  0  0  0  0  0  0
    2.1633  -13.1068   -0.0384 H   0  0  0  0  0  0  0  0  0  0  0  0
    2.5842   -7.1912    0.3246 N   0  0  0  0  0  0  0  0  0  0  0  0
    3.8822   -6.6963    0.8041 C   0  0  2  0  0  0  0  0  0  0  0  0
    4.8620   -7.7941    0.7469 C   0  0  0  0  0  0  0  0  0  0  0  0
    4.5982   -8.9742    0.4034 O   0  0  0  0  0  0  0  0  0  0  0  0
    3.7184   -6.3671    2.2971 C   0  0  0  0  0  0  0  0  0  0  0  0
    2.2170   -8.1357    0.5445 H   0  0  0  0  0  0  0  0  0  0  0  0
    4.1443   -5.7914    0.2508 H   0  0  0  0  0  0  0  0  0  0  0  0
    4.7245   -6.4462    2.7473 H   0  0  0  0  0  0  0  0  0  0  0  0
    3.0330   -7.1134    2.7083 H   0  0  0  0  0  0  0  0  0  0  0  0
    3.4008   -5.3136    2.4285 H   0  0  0  0  0  0  0  0  0  0  0  0
    6.2345   -7.5433    1.1008 N   0  0  0  0  0  0  0  0  0  0  0  0
    6.5028   -6.8711    1.8516 H   0  0  0  0  0  0  0  0  0  0  0  0
    6.9929   -8.0529    0.5804 H   0  0  0  0  0  0  0  0  0  0  0  0
   -4.9831   -0.4647    0.5511 H   0  0  0  0  0  0  0  0  0  0  0  0
   -6.1076    0.1699    3.1271 H   0  0  0  0  0  0  0  0  0  0  0  0
   -3.8754   -0.4302    4.3727 H   0  0  0  0  0  0  0  0  0  0  0  0
   -3.9279   -3.1004    3.9237 H   0  0  0  0  0  0  0  0  0  0  0  0
   -3.2484   -2.1445    1.2611 H   0  0  0  0  0  0  0  0  0  0  0  0
   -5.9999   -2.7064    2.3367 H   0  0  0  0  0  0  0  0  0  0  0  0
   -1.8340   -2.2397    4.5352 H   0  0  0  0  0  0  0  0  0  0  0  0
   -1.9678   -0.2141    4.2653 H   0  0  0  0  0  0  0  0  0  0  0  0
    2.8060    0.9095    1.6017 H   0  0  0  0  0  0  0  0  0  0  0  0
    5.2894   -0.3766    2.0608 H   0  0  0  0  0  0  0  0  0  0  0  0
    5.2974    4.2857    1.1715 H   0  0  0  0  0  0  0  0  0  0  0  0
    5.2460    2.9142    2.6283 H   0  0  0  0  0  0  0  0  0  0  0  0
   -1.7827    6.0327   -0.6842 H   0  0  0  0  0  0  0  0  0  0  0  0
   -0.4164    4.4957   -0.3405 H   0  0  0  0  0  0  0  0  0  0  0  0
  1  2  1  0
  1 11  1  6
  1 12  1  0
  1 13  1  0
  2  3  1  0
  2  7  1  0
  3  4  1  0
  3 10  1  0
  4  5  1  0
  4 14  1  0
  5  6  1  0
  5  9  1  0
  6  7  1  0
  6 15  1  0
  7  8  1  0
  8 16  1  6
  8 17  1  0
  8171  1  0
  9 19  1  0
  9 21  1  0
 10 18  1  1
 10 20  1  0
 10118  1  0
 23 38  1  0
 38 39  1  0
 38 46  1  0
 39 40  1  0
 39 44  1  0
 39 47  1  1
 40 41  1  0
 40 48  1  6
 40 49  1  0
 41 42  1  0
 41 50  1  1
 41 51  1  0
 42 43  1  0
 42 52  1  6
 42 53  1  0
 43 54  1  6
 43 55  1  0
 44 45  1  0
 44 57  1  0
 57 58  1  0
 57 65  1  0
 58 59  1  0
 58 61  1  0
 58 66  1  1
 59 60  1  0
 59 76  1  0
 61 62  1  0
 61 67  1  1
 61 68  1  0
 62 63  1  0
 62 69  1  1
 62 70  1  0
 63 64  1  0
 63 71  1  6
 63 72  1  0
 64 73  1  6
 64 74  1  0
 64 75  1  0
 78 97  1  0
 97 98  1  0
 97104  1  0
 98 99  1  0
 98101  1  0
 98105  1  1
 99100  1  0
 99113  1  0
101102  1  0
101106  1  6
101107  1  0
102103  1  0
102108  1  6
102109  1  0
103110  1  1
103111  1  0
199207  1  0
207208  1  0
207209  1  0
 22 21  1  0
 23 22  1  0
 24 23  2  0
 25 22  1  0
 26 25  1  0
 27 26  1  0
 28 26  2  0
 29 27  2  0
 30 28  1  0
 30 29  1  0
 31 21  1  0
 22 32  1  1
 33 25  1  0
 34 25  1  0
 35 28  1  0
 36 29  1  0
 37 30  1  0
 56 43  1  0
 77 76  1  0
 78 77  1  0
 79 78  2  0
 80 77  1  0
 81 80  1  0
 82 81  2  0
 83 81  1  0
 84 82  1  0
 85 83  2  0
 86 85  1  0
 86 84  2  0
 87 86  1  0
 88 76  1  0
 77 89  1  6
 90 80  1  0
 91 80  1  0
 92 82  1  0
 93 83  1  0
 94 84  1  0
 95 85  1  0
 96 87  1  0
112103  1  0
114113  1  0
115114  1  0
116115  2  0
117114  1  0
118117  1  0
119113  1  0
114120  1  6
121117  1  0
122117  1  0
123115  1  0
124123  1  0
125124  1  0
126125  2  0
127124  1  0
128127  1  0
129127  1  0
130128  1  0
131123  1  0
124132  1  6
127133  1  6
134128  1  0
135128  1  0
136129  1  0
137129  1  0
138129  1  0
139130  1  0
140130  1  0
141130  1  0
142125  1  0
143142  1  0
144143  1  0
145144  2  0
146143  1  0
147146  1  0
148147  1  0
149148  1  0
150149  1  0
151150  1  0
152150  2  0
153142  1  0
143154  1  6
155146  1  0
156146  1  0
157147  1  0
158147  1  0
159148  1  0
160148  1  0
161149  1  0
162151  1  0
163151  1  0
164152  1  0
165152  1  0
166144  1  0
167166  1  0
168167  1  0
169168  2  0
170167  1  0
171170  1  0
172166  1  0
167173  1  1
174170  1  0
175170  1  0
176168  1  0
177176  1  0
178177  1  0
179178  2  0
180177  1  0
181180  1  0
182181  2  0
183181  1  0
184182  1  0
185183  2  0
186185  1  0
186184  2  0
187186  1  0
188176  1  0
177189  1  1
190180  1  0
191180  1  0
192182  1  0
193183  1  0
194184  1  0
195185  1  0
196187  1  0
197178  1  0
198197  1  0
199198  1  0
200199  2  0
201198  1  0
202197  1  0
198203  1  6
204201  1  0
205201  1  0
206201  1  0
  2210  1  6
  3211  1  1
  4212  1  0
  5213  1  0
  6214  1  0
  7215  1  0
  9216  1  0
 19217  1  0
 44218  1  0
 45219  1  0
 59220  1  0
 60221  1  0
 99222  1  0
100223  1  0
M  CHG  3  43   1 103   1 152   1
M  END
$$$$
BP70
     RDKit          3D

223228  0  0  0  0  0  0  0  0999 V2000
   -1.7256    3.6958    3.0365 C   0  0  2  0  0  0  0  0  0  0  0  0
   -2.1406    2.3634    2.4825 C   0  0  1  0  0  0  0  0  0  0  0  0
   -1.4101    2.1714    1.2039 C   0  0  1  0  0  0  0  0  0  0  0  0
   -1.9837    0.9125    0.5389 C   0  0  0  0  0  0  0  0  0  0  0  0
   -1.6005   -0.2368    1.4220 C   0  0  0  0  0  0  0  0  0  0  0  0
   -2.1871   -0.1219    2.8126 C   0  0  0  0  0  0  0  0  0  0  0  0
   -2.0432    1.2030    3.4347 C   0  0  0  0  0  0  0  0  0  0  0  0
   -0.7785    1.2585    4.2717 C   0  0  2  0  0  0  0  0  0  0  0  0
   -2.1044   -1.4873    0.7207 C   0  0  0  0  0  0  0  0  0  0  0  0
   -1.8648    3.2769    0.1819 C   0  0  1  0  0  0  0  0  0  0  0  0
   -1.5882    3.7497    4.1178 H   0  0  0  0  0  0  0  0  0  0  0  0
   -2.5067    4.4992    2.8296 H   0  0  0  0  0  0  0  0  0  0  0  0
   -0.8494    4.1215    2.4463 H   0  0  0  0  0  0  0  0  0  0  0  0
   -1.5175    0.7409   -0.4632 H   0  0  0  0  0  0  0  0  0  0  0  0
   -1.8127   -0.9544    3.4108 H   0  0  0  0  0  0  0  0  0  0  0  0
   -0.3467    0.2178    4.2456 H   0  0  0  0  0  0  0  0  0  0  0  0
   -0.9729    1.4735    5.3471 H   0  0  0  0  0  0  0  0  0  0  0  0
   -2.9483    3.3578    0.2287 H   0  0  0  0  0  0  0  0  0  0  0  0
   -3.5027   -1.4718    0.6892 O   0  0  0  0  0  0  0  0  0  0  0  0
   -1.3132    4.2220    0.3984 H   0  0  0  0  0  0  0  0  0  0  0  0
   -1.6577   -2.7214    1.2810 N   0  0  0  0  0  0  0  0  0  0  0  0
   -0.2710   -3.0339    1.1189 C   0  0  2  0  0  0  0  0  0  0  0  0
    0.1802   -3.5683   -0.1340 C   0  0  0  0  0  0  0  0  0  0  0  0
    1.4346   -3.3947   -0.4024 O   0  0  0  0  0  0  0  0  0  0  0  0
   -0.0058   -4.1446    2.1806 C   0  0  0  0  0  0  0  0  0  0  0  0
   -0.8383   -5.3091    1.9323 C   0  0  0  0  0  0  0  0  0  0  0  0
   -0.6800   -6.4225    1.1980 N   0  0  0  0  0  0  0  0  0  0  0  0
   -2.1361   -5.4788    2.4752 C   0  0  0  0  0  0  0  0  0  0  0  0
   -1.7353   -7.2273    1.2420 C   0  0  0  0  0  0  0  0  0  0  0  0
   -2.6321   -6.6369    2.0367 N   0  0  0  0  0  0  0  0  0  0  0  0
   -1.8473   -2.6640    2.3246 H   0  0  0  0  0  0  0  0  0  0  0  0
    0.3915   -2.1967    1.4670 H   0  0  0  0  0  0  0  0  0  0  0  0
    1.0534   -4.4251    2.1387 H   0  0  0  0  0  0  0  0  0  0  0  0
   -0.2656   -3.6761    3.1637 H   0  0  0  0  0  0  0  0  0  0  0  0
   -2.6217   -4.7860    3.1348 H   0  0  0  0  0  0  0  0  0  0  0  0
   -1.9262   -8.1878    0.7652 H   0  0  0  0  0  0  0  0  0  0  0  0
   -3.5844   -6.9858    2.2994 H   0  0  0  0  0  0  0  0  0  0  0  0
   -0.4747   -4.2723   -1.1477 N   0  0  0  0  0  0  0  0  0  0  0  0
   -0.0546   -4.7716   -2.4162 C   0  0  1  0  0  0  0  0  0  0  0  0
    0.3433   -6.2270   -2.4174 C   0  0  2  0  0  0  0  0  0  0  0  0
    1.5161   -6.5271   -1.5748 C   0  0  2  0  0  0  0  0  0  0  0  0
    2.7672   -5.8661   -2.1057 C   0  0  1  0  0  0  0  0  0  0  0  0
    3.9413   -6.1845   -1.2348 N   0  0  2  0  0  0  0  0  0  0  0  0
   -1.1487   -4.6604   -3.4381 C   0  0  0  0  0  0  0  0  0  0  0  0
   -2.2378   -5.3749   -2.9822 O   0  0  0  0  0  0  0  0  0  0  0  0
   -1.4976   -4.5018   -0.8920 H   0  0  0  0  0  0  0  0  0  0  0  0
    0.8207   -4.2088   -2.7555 H   0  0  0  0  0  0  0  0  0  0  0  0
    0.6329   -6.4531   -3.4896 H   0  0  0  0  0  0  0  0  0  0  0  0
   -0.5298   -6.8945   -2.2485 H   0  0  0  0  0  0  0  0  0  0  0  0
    1.7739   -7.6196   -1.5479 H   0  0  0  0  0  0  0  0  0  0  0  0
    1.4164   -6.1243   -0.5254 H   0  0  0  0  0  0  0  0  0  0  0  0
    3.0111   -6.2773   -3.1320 H   0  0  0  0  0  0  0  0  0  0  0  0
    2.6993   -4.7900   -2.2429 H   0  0  0  0  0  0  0  0  0  0  0  0
    4.4555   -5.2691   -0.9950 H   0  0  0  0  0  0  0  0  0  0  0  0
    4.5915   -6.8348   -1.7596 H   0  0  0  0  0  0  0  0  0  0  0  0
    3.5911   -6.6354   -0.3363 H   0  0  0  0  0  0  0  0  0  0  0  0
   -1.3804   -3.3665   -3.9696 N   0  0  0  0  0  0  0  0  0  0  0  0
   -2.6533   -3.4464   -4.6842 C   0  0  2  0  0  0  0  0  0  0  0  0
   -2.7438   -2.5292   -5.8895 C   0  0  0  0  0  0  0  0  0  0  0  0
   -3.9711   -2.8075   -6.4658 O   0  0  0  0  0  0  0  0  0  0  0  0
   -3.6890   -3.0518   -3.6355 C   0  0  2  0  0  0  0  0  0  0  0  0
   -5.1124   -3.0871   -4.0971 C   0  0  1  0  0  0  0  0  0  0  0  0
   -6.0673   -2.7430   -2.9547 C   0  0  1  0  0  0  0  0  0  0  0  0
   -6.0125   -3.7021   -1.8118 C   0  0  2  0  0  0  0  0  0  0  0  0
   -0.6670   -3.1588   -4.7135 H   0  0  0  0  0  0  0  0  0  0  0  0
   -2.8488   -4.4655   -4.9954 H   0  0  0  0  0  0  0  0  0  0  0  0
   -3.4919   -1.9769   -3.3506 H   0  0  0  0  0  0  0  0  0  0  0  0
   -3.5721   -3.5987   -2.7043 H   0  0  0  0  0  0  0  0  0  0  0  0
   -5.2793   -2.2726   -4.8359 H   0  0  0  0  0  0  0  0  0  0  0  0
   -5.3923   -4.0327   -4.5711 H   0  0  0  0  0  0  0  0  0  0  0  0
   -5.7240   -1.7366   -2.5546 H   0  0  0  0  0  0  0  0  0  0  0  0
   -7.0938   -2.5930   -3.2990 H   0  0  0  0  0  0  0  0  0  0  0  0
   -6.4921   -4.6754   -2.0835 H   0  0  0  0  0  0  0  0  0  0  0  0
   -6.6534   -3.3324   -0.9517 H   0  0  0  0  0  0  0  0  0  0  0  0
   -5.0184   -3.8245   -1.3622 H   0  0  0  0  0  0  0  0  0  0  0  0
   -2.4069   -1.2051   -5.6625 N   0  0  0  0  0  0  0  0  0  0  0  0
   -2.6664   -0.2119   -6.5865 C   0  0  2  0  0  0  0  0  0  0  0  0
   -2.1663    1.1591   -6.3970 C   0  0  0  0  0  0  0  0  0  0  0  0
   -2.3001    1.9563   -7.3746 O   0  0  0  0  0  0  0  0  0  0  0  0
   -4.1693   -0.0529   -6.9013 C   0  0  0  0  0  0  0  0  0  0  0  0
   -4.4743    1.1035   -7.7294 C   0  0  0  0  0  0  0  0  0  0  0  0
   -4.3673    1.2981   -9.0780 C   0  0  0  0  0  0  0  0  0  0  0  0
   -4.9673    2.2485   -7.0316 C   0  0  0  0  0  0  0  0  0  0  0  0
   -4.7102    2.5195   -9.6958 C   0  0  0  0  0  0  0  0  0  0  0  0
   -5.2886    3.3950   -7.6034 C   0  0  0  0  0  0  0  0  0  0  0  0
   -5.1761    3.5974   -8.9667 C   0  0  0  0  0  0  0  0  0  0  0  0
   -5.5146    4.8205   -9.4901 O   0  0  0  0  0  0  0  0  0  0  0  0
   -1.4658   -1.1361   -5.2283 H   0  0  0  0  0  0  0  0  0  0  0  0
   -2.1832   -0.5569   -7.5740 H   0  0  0  0  0  0  0  0  0  0  0  0
   -4.7744   -0.0572   -5.9879 H   0  0  0  0  0  0  0  0  0  0  0  0
   -4.4603   -0.9972   -7.4765 H   0  0  0  0  0  0  0  0  0  0  0  0
   -4.0169    0.4935   -9.6714 H   0  0  0  0  0  0  0  0  0  0  0  0
   -5.0976    2.1466   -5.9358 H   0  0  0  0  0  0  0  0  0  0  0  0
   -4.6007    2.6190  -10.7548 H   0  0  0  0  0  0  0  0  0  0  0  0
   -5.6570    4.2267   -6.9958 H   0  0  0  0  0  0  0  0  0  0  0  0
   -4.9579    5.6733   -9.1721 H   0  0  0  0  0  0  0  0  0  0  0  0
   -1.5541    1.7207   -5.2735 N   0  0  0  0  0  0  0  0  0  0  0  0
   -1.0144    3.0771   -5.1626 C   0  0  2  0  0  0  0  0  0  0  0  0
    0.0486    3.1749   -4.1068 C   0  0  0  0  0  0  0  0  0  0  0  0
    1.2667    2.6042   -4.4157 O   0  0  0  0  0  0  0  0  0  0  0  0
   -1.9975    4.1776   -5.2172 C   0  0  2  0  0  0  0  0  0  0  0  0
   -3.0984    4.2217   -4.2312 C   0  0  1  0  0  0  0  0  0  0  0  0
   -3.8666    5.4801   -4.5993 N   0  0  2  0  0  0  0  0  0  0  0  0
   -1.4856    1.1391   -4.4323 H   0  0  0  0  0  0  0  0  0  0  0  0
   -0.4405    3.2299   -6.1731 H   0  0  0  0  0  0  0  0  0  0  0  0
   -2.4577    4.2914   -6.2377 H   0  0  0  0  0  0  0  0  0  0  0  0
   -1.4328    5.1371   -5.0940 H   0  0  0  0  0  0  0  0  0  0  0  0
   -3.8873    3.4547   -4.3912 H   0  0  0  0  0  0  0  0  0  0  0  0
   -2.8405    4.4058   -3.1953 H   0  0  0  0  0  0  0  0  0  0  0  0
   -4.7048    5.5650   -3.9760 H   0  0  0  0  0  0  0  0  0  0  0  0
   -4.1039    5.3989   -5.6346 H   0  0  0  0  0  0  0  0  0  0  0  0
   -3.1721    6.2948   -4.4684 H   0  0  0  0  0  0  0  0  0  0  0  0
    0.1367    4.3741   -3.3944 N   0  0  0  0  0  0  0  0  0  0  0  0
    0.7927    4.2887   -2.1036 C   0  0  2  0  0  0  0  0  0  0  0  0
    2.2609    4.3888   -2.2134 C   0  0  0  0  0  0  0  0  0  0  0  0
    2.9216    4.3511   -3.2630 O   0  0  0  0  0  0  0  0  0  0  0  0
    0.5010    2.8767   -1.5425 C   0  0  0  0  0  0  0  0  0  0  0  0
   -1.2779    2.6137   -1.3798 S   0  0  0  0  0  0  0  0  0  0  0  0
    0.6512    5.1429   -3.8978 H   0  0  0  0  0  0  0  0  0  0  0  0
    0.3899    5.0066   -1.4287 H   0  0  0  0  0  0  0  0  0  0  0  0
    0.8863    2.9455   -0.5003 H   0  0  0  0  0  0  0  0  0  0  0  0
    1.0640    2.0969   -2.0143 H   0  0  0  0  0  0  0  0  0  0  0  0
    3.0883    4.5647   -1.0297 N   0  0  0  0  0  0  0  0  0  0  0  0
    4.5727    4.5914   -1.1490 C   0  0  2  0  0  0  0  0  0  0  0  0
    5.0680    3.4256   -0.3552 C   0  0  0  0  0  0  0  0  0  0  0  0
    6.2445    3.0694   -0.2949 O   0  0  0  0  0  0  0  0  0  0  0  0
    5.0264    5.9332   -0.8004 C   0  0  2  0  0  0  0  0  0  0  0  0
    6.4432    6.2867   -0.8876 C   0  0  0  0  0  0  0  0  0  0  0  0
    4.4195    6.4444    0.5149 C   0  0  0  0  0  0  0  0  0  0  0  0
    7.4782    5.6441   -0.0783 C   0  0  0  0  0  0  0  0  0  0  0  0
    2.5790    4.6926   -0.1786 H   0  0  0  0  0  0  0  0  0  0  0  0
    4.8382    4.3631   -2.2244 H   0  0  0  0  0  0  0  0  0  0  0  0
    4.4947    6.6223   -1.5606 H   0  0  0  0  0  0  0  0  0  0  0  0
    6.5810    7.4297   -0.7411 H   0  0  0  0  0  0  0  0  0  0  0  0
    6.7721    6.2203   -1.9880 H   0  0  0  0  0  0  0  0  0  0  0  0
    4.6549    7.5576    0.4904 H   0  0  0  0  0  0  0  0  0  0  0  0
    4.8810    6.0335    1.4041 H   0  0  0  0  0  0  0  0  0  0  0  0
    3.3268    6.3876    0.5068 H   0  0  0  0  0  0  0  0  0  0  0  0
    8.2744    6.4466    0.1787 H   0  0  0  0  0  0  0  0  0  0  0  0
    7.1285    5.2180    0.8900 H   0  0  0  0  0  0  0  0  0  0  0  0
    8.0558    4.8887   -0.6358 H   0  0  0  0  0  0  0  0  0  0  0  0
    4.1831    2.6278    0.4000 N   0  0  0  0  0  0  0  0  0  0  0  0
    4.2480    1.4433    1.1790 C   0  0  2  0  0  0  0  0  0  0  0  0
    3.7608    1.8786    2.5887 C   0  0  0  0  0  0  0  0  0  0  0  0
    3.8726    3.0488    2.8357 O   0  0  0  0  0  0  0  0  0  0  0  0
    5.4656    0.6517    1.3368 C   0  0  0  0  0  0  0  0  0  0  0  0
    6.1158    0.0652    0.1826 C   0  0  0  0  0  0  0  0  0  0  0  0
    5.4298   -0.8362   -0.7614 C   0  0  0  0  0  0  0  0  0  0  0  0
    4.3343   -0.3170   -1.5166 N   0  0  0  0  0  0  0  0  0  0  0  0
    3.7093   -1.1754   -2.4907 C   0  0  0  0  0  0  0  0  0  0  0  0
    2.6139   -0.6757   -3.2845 N   0  0  0  0  0  0  0  0  0  0  0  0
    4.1603   -2.3957   -2.6532 N   0  0  0  0  0  0  0  0  0  0  0  0
    3.1869    3.0330    0.3700 H   0  0  0  0  0  0  0  0  0  0  0  0
    3.4623    0.7413    0.7878 H   0  0  0  0  0  0  0  0  0  0  0  0
    5.1809   -0.2133    2.0302 H   0  0  0  0  0  0  0  0  0  0  0  0
    6.2229    1.1841    2.0245 H   0  0  0  0  0  0  0  0  0  0  0  0
    6.9648   -0.6427    0.6630 H   0  0  0  0  0  0  0  0  0  0  0  0
    6.8105    0.7010   -0.4313 H   0  0  0  0  0  0  0  0  0  0  0  0
    5.1536   -1.7861   -0.2182 H   0  0  0  0  0  0  0  0  0  0  0  0
    6.1892   -1.2009   -1.5170 H   0  0  0  0  0  0  0  0  0  0  0  0
    3.9231    0.6292   -1.4451 H   0  0  0  0  0  0  0  0  0  0  0  0
    2.7804   -0.2295   -4.2134 H   0  0  0  0  0  0  0  0  0  0  0  0
    1.6139   -0.7737   -2.9137 H   0  0  0  0  0  0  0  0  0  0  0  0
    4.9645   -2.6634   -2.0487 H   0  0  0  0  0  0  0  0  0  0  0  0
    3.7395   -3.0337   -3.3555 H   0  0  0  0  0  0  0  0  0  0  0  0
    3.2099    0.9872    3.5282 N   0  0  0  0  0  0  0  0  0  0  0  0
    2.7927    1.5425    4.7900 C   0  0  2  0  0  0  0  0  0  0  0  0
    2.2196    0.7282    5.7860 C   0  0  0  0  0  0  0  0  0  0  0  0
    1.4448    1.2919    6.6717 O   0  0  0  0  0  0  0  0  0  0  0  0
    1.8498    2.7261    4.5475 C   0  0  0  0  0  0  0  0  0  0  0  0
    0.4714    2.3193    3.5571 S   0  0  0  0  0  0  0  0  0  0  0  0
    3.1578    0.0032    3.2525 H   0  0  0  0  0  0  0  0  0  0  0  0
    3.7487    2.1257    5.1426 H   0  0  0  0  0  0  0  0  0  0  0  0
    2.3831    3.6300    4.2633 H   0  0  0  0  0  0  0  0  0  0  0  0
    1.4787    3.0034    5.6113 H   0  0  0  0  0  0  0  0  0  0  0  0
    2.3374   -0.6934    6.0277 N   0  0  0  0  0  0  0  0  0  0  0  0
    1.4944   -1.1136    7.1628 C   0  0  2  0  0  0  0  0  0  0  0  0
    2.0465   -0.4758    8.4334 C   0  0  0  0  0  0  0  0  0  0  0  0
    3.2240   -0.2777    8.6786 O   0  0  0  0  0  0  0  0  0  0  0  0
    1.5388   -2.5973    7.4083 C   0  0  0  0  0  0  0  0  0  0  0  0
    0.6654   -2.9904    8.5427 C   0  0  0  0  0  0  0  0  0  0  0  0
   -0.6208   -3.4489    8.3109 C   0  0  0  0  0  0  0  0  0  0  0  0
    1.1281   -2.7976    9.8530 C   0  0  0  0  0  0  0  0  0  0  0  0
   -1.4596   -3.7197    9.3836 C   0  0  0  0  0  0  0  0  0  0  0  0
    0.2902   -3.0598   10.9717 C   0  0  0  0  0  0  0  0  0  0  0  0
   -0.9608   -3.5117   10.6102 C   0  0  0  0  0  0  0  0  0  0  0  0
   -1.8177   -3.7876   11.7057 O   0  0  0  0  0  0  0  0  0  0  0  0
    2.9284   -1.2501    5.4477 H   0  0  0  0  0  0  0  0  0  0  0  0
    0.5395   -0.6473    6.9998 H   0  0  0  0  0  0  0  0  0  0  0  0
    2.5623   -2.9344    7.7151 H   0  0  0  0  0  0  0  0  0  0  0  0
    1.2174   -3.1279    6.5106 H   0  0  0  0  0  0  0  0  0  0  0  0
   -1.0317   -3.6284    7.3301 H   0  0  0  0  0  0  0  0  0  0  0  0
    2.1453   -2.4640    9.9911 H   0  0  0  0  0  0  0  0  0  0  0  0
   -2.4526   -4.0851    9.1503 H   0  0  0  0  0  0  0  0  0  0  0  0
    0.6334   -2.8893   11.9780 H   0  0  0  0  0  0  0  0  0  0  0  0
   -2.7846   -3.5734   11.6122 H   0  0  0  0  0  0  0  0  0  0  0  0
    0.9723   -0.1194    9.3526 N   0  0  0  0  0  0  0  0  0  0  0  0
    1.2062    0.4701   10.6648 C   0  0  2  0  0  0  0  0  0  0  0  0
    0.0518    1.3057   10.9681 C   0  0  0  0  0  0  0  0  0  0  0  0
   -0.7847    1.2797    9.8896 O   0  0  0  0  0  0  0  0  0  0  0  0
    2.5024    1.3123   10.6640 C   0  0  0  0  0  0  0  0  0  0  0  0
   -0.0310   -0.2685    9.0933 H   0  0  0  0  0  0  0  0  0  0  0  0
    1.3925   -0.3177   11.4198 H   0  0  0  0  0  0  0  0  0  0  0  0
    3.3372    0.6027   10.8262 H   0  0  0  0  0  0  0  0  0  0  0  0
    2.5962    1.9863    9.8196 H   0  0  0  0  0  0  0  0  0  0  0  0
    2.4774    1.9163   11.6043 H   0  0  0  0  0  0  0  0  0  0  0  0
   -0.3835    2.0685   11.9864 N   0  0  0  0  0  0  0  0  0  0  0  0
   -1.1727    2.7492   11.9354 H   0  0  0  0  0  0  0  0  0  0  0  0
    0.0655    2.0255   12.9636 H   0  0  0  0  0  0  0  0  0  0  0  0
   -3.2252    2.4946    2.1658 H   0  0  0  0  0  0  0  0  0  0  0  0
   -0.3349    2.1984    1.2398 H   0  0  0  0  0  0  0  0  0  0  0  0
   -3.0686    1.0730    0.4572 H   0  0  0  0  0  0  0  0  0  0  0  0
   -0.5092   -0.2810    1.4947 H   0  0  0  0  0  0  0  0  0  0  0  0
   -3.2844   -0.3687    2.6297 H   0  0  0  0  0  0  0  0  0  0  0  0
   -2.8517    1.3704    4.1676 H   0  0  0  0  0  0  0  0  0  0  0  0
   -1.7769   -1.4653   -0.3353 H   0  0  0  0  0  0  0  0  0  0  0  0
   -3.8839   -1.9579    1.4776 H   0  0  0  0  0  0  0  0  0  0  0  0
   -0.7205   -5.2771   -4.3330 H   0  0  0  0  0  0  0  0  0  0  0  0
   -2.1835   -6.3138   -3.2406 H   0  0  0  0  0  0  0  0  0  0  0  0
   -2.0035   -3.0147   -6.6335 H   0  0  0  0  0  0  0  0  0  0  0  0
   -4.0293   -3.7897   -6.5448 H   0  0  0  0  0  0  0  0  0  0  0  0
   -0.3472    2.3291   -3.3796 H   0  0  0  0  0  0  0  0  0  0  0  0
    1.6296    3.0019   -5.2779 H   0  0  0  0  0  0  0  0  0  0  0  0
  1  2  1  0
  1 11  1  1
  1 12  1  0
  1 13  1  0
  2  3  1  0
  2  7  1  0
  3  4  1  0
  3 10  1  0
  4  5  1  0
  4 14  1  0
  5  6  1  0
  5  9  1  0
  6  7  1  0
  6 15  1  0
  7  8  1  0
  8 16  1  1
  8 17  1  0
  8171  1  0
  9 19  1  0
  9 21  1  0
 10 18  1  6
 10 20  1  0
 10118  1  0
 23 38  1  0
 38 39  1  0
 38 46  1  0
 39 40  1  0
 39 44  1  0
 39 47  1  6
 40 41  1  0
 40 48  1  6
 40 49  1  0
 41 42  1  0
 41 50  1  1
 41 51  1  0
 42 43  1  0
 42 52  1  6
 42 53  1  0
 43 54  1  1
 43 55  1  0
 44 45  1  0
 44 57  1  0
 57 58  1  0
 57 65  1  0
 58 59  1  0
 58 61  1  0
 58 66  1  6
 59 60  1  0
 59 76  1  0
 61 62  1  0
 61 67  1  1
 61 68  1  0
 62 63  1  0
 62 69  1  6
 62 70  1  0
 63 64  1  0
 63 71  1  1
 63 72  1  0
 64 73  1  6
 64 74  1  0
 64 75  1  0
 78 97  1  0
 97 98  1  0
 97104  1  0
 98 99  1  0
 98101  1  0
 98105  1  6
 99100  1  0
 99113  1  0
101102  1  0
101106  1  6
101107  1  0
102103  1  0
102108  1  1
102109  1  0
103110  1  1
103111  1  0
199207  1  0
207208  1  0
207209  1  0
 22 21  1  0
 23 22  1  0
 24 23  2  0
 25 22  1  0
 26 25  1  0
 27 26  1  0
 28 26  2  0
 29 27  2  0
 30 28  1  0
 30 29  1  0
 31 21  1  0
 22 32  1  1
 33 25  1  0
 34 25  1  0
 35 28  1  0
 36 29  1  0
 37 30  1  0
 56 43  1  0
 77 76  1  0
 78 77  1  0
 79 78  2  0
 80 77  1  0
 81 80  1  0
 82 81  2  0
 83 81  1  0
 84 82  1  0
 85 83  2  0
 86 85  1  0
 86 84  2  0
 87 86  1  0
 88 76  1  0
 77 89  1  6
 90 80  1  0
 91 80  1  0
 92 82  1  0
 93 83  1  0
 94 84  1  0
 95 85  1  0
 96 87  1  0
112103  1  0
114113  1  0
115114  1  0
116115  2  0
117114  1  0
118117  1  0
119113  1  0
114120  1  1
121117  1  0
122117  1  0
123115  1  0
124123  1  0
125124  1  0
126125  2  0
127124  1  0
128127  1  0
129127  1  0
130128  1  0
131123  1  0
124132  1  6
127133  1  6
134128  1  0
135128  1  0
136129  1  0
137129  1  0
138129  1  0
139130  1  0
140130  1  0
141130  1  0
142125  1  0
143142  1  0
144143  1  0
145144  2  0
146143  1  0
147146  1  0
148147  1  0
149148  1  0
150149  1  0
151150  1  0
152150  2  0
153142  1  0
143154  1  6
155146  1  0
156146  1  0
157147  1  0
158147  1  0
159148  1  0
160148  1  0
161149  1  0
162151  1  0
163151  1  0
164152  1  0
165152  1  0
166144  1  0
167166  1  0
168167  1  0
169168  2  0
170167  1  0
171170  1  0
172166  1  0
167173  1  1
174170  1  0
175170  1  0
176168  1  0
177176  1  0
178177  1  0
179178  2  0
180177  1  0
181180  1  0
182181  2  0
183181  1  0
184182  1  0
185183  2  0
186185  1  0
186184  2  0
187186  1  0
188176  1  0
177189  1  6
190180  1  0
191180  1  0
192182  1  0
193183  1  0
194184  1  0
195185  1  0
196187  1  0
197178  1  0
198197  1  0
199198  1  0
200199  2  0
201198  1  0
202197  1  0
198203  1  1
204201  1  0
205201  1  0
206201  1  0
  2210  1  6
  3211  1  1
  4212  1  0
  5213  1  0
  6214  1  0
  7215  1  0
  9216  1  0
 19217  1  0
 44218  1  0
 45219  1  0
 59220  1  0
 60221  1  0
 99222  1  0
100223  1  0
M  CHG  3  43   1 103   1 152   1
M  END
$$$$
BP70
     RDKit          3D

223228  0  0  0  0  0  0  0  0999 V2000
    1.2372   -4.0843   -4.0139 C   0  0  2  0  0  0  0  0  0  0  0  0
    0.3049   -3.0703   -3.2783 C   0  0  1  0  0  0  0  0  0  0  0  0
    1.0170   -2.6734   -2.0475 C   0  0  1  0  0  0  0  0  0  0  0  0
    1.1943   -1.2503   -1.7898 C   0  0  0  0  0  0  0  0  0  0  0  0
    1.0738   -0.3647   -2.9988 C   0  0  0  0  0  0  0  0  0  0  0  0
   -0.1530   -0.6447   -3.7931 C   0  0  0  0  0  0  0  0  0  0  0  0
   -0.0506   -2.0728   -4.3044 C   0  0  0  0  0  0  0  0  0  0  0  0
   -1.3167   -2.4657   -5.0173 C   0  0  2  0  0  0  0  0  0  0  0  0
    1.0155    1.0836   -2.4186 C   0  0  0  0  0  0  0  0  0  0  0  0
    0.2475   -3.3172   -0.8714 C   0  0  1  0  0  0  0  0  0  0  0  0
    0.9362   -4.1362   -5.0851 H   0  0  0  0  0  0  0  0  0  0  0  0
    1.1670   -5.0496   -3.5141 H   0  0  0  0  0  0  0  0  0  0  0  0
    2.2696   -3.6975   -3.9933 H   0  0  0  0  0  0  0  0  0  0  0  0
    2.2626   -1.0242   -1.4294 H   0  0  0  0  0  0  0  0  0  0  0  0
   -1.0591   -0.4289   -3.2340 H   0  0  0  0  0  0  0  0  0  0  0  0
   -1.0864   -2.9251   -6.0094 H   0  0  0  0  0  0  0  0  0  0  0  0
   -1.8536   -1.5143   -5.2775 H   0  0  0  0  0  0  0  0  0  0  0  0
   -0.6735   -3.8310   -1.2282 H   0  0  0  0  0  0  0  0  0  0  0  0
    2.1016    0.9744   -1.4554 O   0  0  0  0  0  0  0  0  0  0  0  0
    0.8889   -4.1770   -0.4921 H   0  0  0  0  0  0  0  0  0  0  0  0
    1.4324    2.0419   -3.3241 N   0  0  0  0  0  0  0  0  0  0  0  0
    1.0760    3.3807   -3.3507 C   0  0  2  0  0  0  0  0  0  0  0  0
    1.1236    4.2684   -2.1950 C   0  0  0  0  0  0  0  0  0  0  0  0
    1.0411    5.5255   -2.4419 O   0  0  0  0  0  0  0  0  0  0  0  0
   -0.3469    3.4470   -3.9962 C   0  0  0  0  0  0  0  0  0  0  0  0
   -0.8237    4.8436   -4.0718 C   0  0  0  0  0  0  0  0  0  0  0  0
   -1.5302    5.4317   -3.0902 N   0  0  0  0  0  0  0  0  0  0  0  0
   -0.6799    5.7864   -5.0686 C   0  0  0  0  0  0  0  0  0  0  0  0
   -1.8344    6.6968   -3.4251 C   0  0  0  0  0  0  0  0  0  0  0  0
   -1.3107    6.9231   -4.6496 N   0  0  0  0  0  0  0  0  0  0  0  0
    2.0284    1.7112   -4.1203 H   0  0  0  0  0  0  0  0  0  0  0  0
    1.6960    3.8416   -4.2170 H   0  0  0  0  0  0  0  0  0  0  0  0
   -1.0320    2.7866   -3.4379 H   0  0  0  0  0  0  0  0  0  0  0  0
   -0.2148    3.0144   -5.0036 H   0  0  0  0  0  0  0  0  0  0  0  0
   -0.1571    5.6257   -6.0015 H   0  0  0  0  0  0  0  0  0  0  0  0
   -2.3963    7.4132   -2.8305 H   0  0  0  0  0  0  0  0  0  0  0  0
   -1.3613    7.8161   -5.2165 H   0  0  0  0  0  0  0  0  0  0  0  0
    1.2372    3.9955   -0.8252 N   0  0  0  0  0  0  0  0  0  0  0  0
    1.3219    5.0168    0.2340 C   0  0  1  0  0  0  0  0  0  0  0  0
    0.0831    5.0326    1.0998 C   0  0  2  0  0  0  0  0  0  0  0  0
   -1.1619    5.3330    0.2770 C   0  0  2  0  0  0  0  0  0  0  0  0
   -2.3406    5.3096    1.2487 C   0  0  1  0  0  0  0  0  0  0  0  0
   -2.1118    6.3411    2.2823 N   0  0  2  0  0  0  0  0  0  0  0  0
    2.5454    4.7487    1.1137 C   0  0  0  0  0  0  0  0  0  0  0  0
    2.4802    3.4791    1.6550 O   0  0  0  0  0  0  0  0  0  0  0  0
    1.2357    3.0417   -0.5167 H   0  0  0  0  0  0  0  0  0  0  0  0
    1.3619    5.9946   -0.2619 H   0  0  0  0  0  0  0  0  0  0  0  0
    0.2365    5.8337    1.8491 H   0  0  0  0  0  0  0  0  0  0  0  0
   -0.0286    4.0718    1.6075 H   0  0  0  0  0  0  0  0  0  0  0  0
   -1.3389    4.5250   -0.4475 H   0  0  0  0  0  0  0  0  0  0  0  0
   -1.1111    6.3419   -0.1523 H   0  0  0  0  0  0  0  0  0  0  0  0
   -3.3102    5.4700    0.7418 H   0  0  0  0  0  0  0  0  0  0  0  0
   -2.3766    4.3470    1.7964 H   0  0  0  0  0  0  0  0  0  0  0  0
   -3.0712    6.6715    2.6451 H   0  0  0  0  0  0  0  0  0  0  0  0
   -1.5710    7.1478    1.8620 H   0  0  0  0  0  0  0  0  0  0  0  0
   -1.5750    5.8900    3.0983 H   0  0  0  0  0  0  0  0  0  0  0  0
    3.7155    5.0735    0.3883 N   0  0  0  0  0  0  0  0  0  0  0  0
    4.9714    4.7281    0.9148 C   0  0  2  0  0  0  0  0  0  0  0  0
    5.0436    3.4078    1.5946 C   0  0  0  0  0  0  0  0  0  0  0  0
    4.6677    2.3562    0.7246 O   0  0  0  0  0  0  0  0  0  0  0  0
    5.8622    5.7683    1.4202 C   0  0  2  0  0  0  0  0  0  0  0  0
    5.4709    6.6975    2.4925 C   0  0  1  0  0  0  0  0  0  0  0  0
    4.4047    7.6912    2.2130 C   0  0  1  0  0  0  0  0  0  0  0  0
    4.1579    8.5117    3.4825 C   0  0  2  0  0  0  0  0  0  0  0  0
    3.6296    5.3109   -0.5984 H   0  0  0  0  0  0  0  0  0  0  0  0
    5.5444    4.4336   -0.1195 H   0  0  0  0  0  0  0  0  0  0  0  0
    6.2769    6.4316    0.5801 H   0  0  0  0  0  0  0  0  0  0  0  0
    6.8251    5.2598    1.8018 H   0  0  0  0  0  0  0  0  0  0  0  0
    5.2154    6.1906    3.4590 H   0  0  0  0  0  0  0  0  0  0  0  0
    6.3963    7.2943    2.7687 H   0  0  0  0  0  0  0  0  0  0  0  0
    4.8095    8.4921    1.4904 H   0  0  0  0  0  0  0  0  0  0  0  0
    3.4874    7.3816    1.7569 H   0  0  0  0  0  0  0  0  0  0  0  0
    5.0723    8.9492    3.8927 H   0  0  0  0  0  0  0  0  0  0  0  0
    3.6282    7.9201    4.2558 H   0  0  0  0  0  0  0  0  0  0  0  0
    3.4853    9.3643    3.1939 H   0  0  0  0  0  0  0  0  0  0  0  0
    6.4592    3.0476    1.9265 N   0  0  0  0  0  0  0  0  0  0  0  0
    6.4099    1.6023    2.2487 C   0  0  2  0  0  0  0  0  0  0  0  0
    5.5410    1.3350    3.4268 C   0  0  0  0  0  0  0  0  0  0  0  0
    5.4308    2.1679    4.3152 O   0  0  0  0  0  0  0  0  0  0  0  0
    7.7950    1.0797    2.4902 C   0  0  0  0  0  0  0  0  0  0  0  0
    7.6899   -0.3729    2.8118 C   0  0  0  0  0  0  0  0  0  0  0  0
    7.7387   -1.3590    1.8489 C   0  0  0  0  0  0  0  0  0  0  0  0
    7.5332   -0.6739    4.1686 C   0  0  0  0  0  0  0  0  0  0  0  0
    7.6254   -2.6602    2.2906 C   0  0  0  0  0  0  0  0  0  0  0  0
    7.4226   -1.9826    4.5821 C   0  0  0  0  0  0  0  0  0  0  0  0
    7.4696   -2.9879    3.6272 C   0  0  0  0  0  0  0  0  0  0  0  0
    7.3566   -4.3074    4.0509 O   0  0  0  0  0  0  0  0  0  0  0  0
    7.0347    3.1357    1.0713 H   0  0  0  0  0  0  0  0  0  0  0  0
    6.0103    1.1134    1.3439 H   0  0  0  0  0  0  0  0  0  0  0  0
    8.3912    1.1759    1.5788 H   0  0  0  0  0  0  0  0  0  0  0  0
    8.3080    1.6024    3.3262 H   0  0  0  0  0  0  0  0  0  0  0  0
    7.8621   -1.0639    0.8312 H   0  0  0  0  0  0  0  0  0  0  0  0
    7.4972    0.1089    4.9138 H   0  0  0  0  0  0  0  0  0  0  0  0
    7.6602   -3.4514    1.5544 H   0  0  0  0  0  0  0  0  0  0  0  0
    7.3025   -2.2133    5.6229 H   0  0  0  0  0  0  0  0  0  0  0  0
    8.1733   -4.9021    4.1095 H   0  0  0  0  0  0  0  0  0  0  0  0
    4.8122    0.1314    3.5441 N   0  0  0  0  0  0  0  0  0  0  0  0
    3.9692   -0.3168    4.6124 C   0  0  2  0  0  0  0  0  0  0  0  0
    2.8117   -1.1755    4.0714 C   0  0  0  0  0  0  0  0  0  0  0  0
    3.3952   -2.2860    3.4476 O   0  0  0  0  0  0  0  0  0  0  0  0
    3.3766    0.8719    5.3756 C   0  0  2  0  0  0  0  0  0  0  0  0
    2.4317    0.4209    6.4777 C   0  0  1  0  0  0  0  0  0  0  0  0
    1.9596    1.6925    7.1237 N   0  0  2  0  0  0  0  0  0  0  0  0
    4.9129   -0.5054    2.7282 H   0  0  0  0  0  0  0  0  0  0  0  0
    4.5876   -0.8719    5.3733 H   0  0  0  0  0  0  0  0  0  0  0  0
    2.9146    1.6414    4.7849 H   0  0  0  0  0  0  0  0  0  0  0  0
    4.2895    1.2746    5.9436 H   0  0  0  0  0  0  0  0  0  0  0  0
    1.5181   -0.0543    6.0425 H   0  0  0  0  0  0  0  0  0  0  0  0
    2.9455   -0.2118    7.2091 H   0  0  0  0  0  0  0  0  0  0  0  0
    1.0636    2.0127    6.6388 H   0  0  0  0  0  0  0  0  0  0  0  0
    2.7359    2.4076    7.0391 H   0  0  0  0  0  0  0  0  0  0  0  0
    1.7646    1.4538    8.1579 H   0  0  0  0  0  0  0  0  0  0  0  0
    2.1199   -0.3370    3.1933 N   0  0  0  0  0  0  0  0  0  0  0  0
    0.9612   -0.7030    2.4698 C   0  0  2  0  0  0  0  0  0  0  0  0
   -0.1778   -1.0833    3.3406 C   0  0  0  0  0  0  0  0  0  0  0  0
   -0.0521   -1.6902    4.4059 O   0  0  0  0  0  0  0  0  0  0  0  0
    1.2886   -1.7580    1.4064 C   0  0  0  0  0  0  0  0  0  0  0  0
   -0.1593   -2.1855    0.4594 S   0  0  0  0  0  0  0  0  0  0  0  0
    1.8292    0.5311    3.7427 H   0  0  0  0  0  0  0  0  0  0  0  0
    0.6780    0.1984    1.8703 H   0  0  0  0  0  0  0  0  0  0  0  0
    2.0464   -1.3096    0.7826 H   0  0  0  0  0  0  0  0  0  0  0  0
    1.6371   -2.6999    1.9052 H   0  0  0  0  0  0  0  0  0  0  0  0
   -1.5507   -0.7454    3.0024 N   0  0  0  0  0  0  0  0  0  0  0  0
   -2.6657   -1.1037    3.8506 C   0  0  2  0  0  0  0  0  0  0  0  0
   -3.9388   -1.3357    3.1201 C   0  0  0  0  0  0  0  0  0  0  0  0
   -4.9304   -1.8193    3.6902 O   0  0  0  0  0  0  0  0  0  0  0  0
   -2.9309    0.0550    4.8447 C   0  0  2  0  0  0  0  0  0  0  0  0
   -3.2596    1.3339    4.1572 C   0  0  0  0  0  0  0  0  0  0  0  0
   -1.8309    0.2600    5.8359 C   0  0  0  0  0  0  0  0  0  0  0  0
   -3.4993    2.3997    5.2184 C   0  0  0  0  0  0  0  0  0  0  0  0
   -1.6237   -0.2362    2.1211 H   0  0  0  0  0  0  0  0  0  0  0  0
   -2.4647   -1.9526    4.5080 H   0  0  0  0  0  0  0  0  0  0  0  0
   -3.8307   -0.2539    5.4328 H   0  0  0  0  0  0  0  0  0  0  0  0
   -2.3936    1.7254    3.5593 H   0  0  0  0  0  0  0  0  0  0  0  0
   -4.1781    1.2395    3.5364 H   0  0  0  0  0  0  0  0  0  0  0  0
   -0.8837    0.6635    5.3940 H   0  0  0  0  0  0  0  0  0  0  0  0
   -1.5589   -0.6712    6.3678 H   0  0  0  0  0  0  0  0  0  0  0  0
   -2.1491    0.9657    6.6522 H   0  0  0  0  0  0  0  0  0  0  0  0
   -4.1361    2.0728    6.0420 H   0  0  0  0  0  0  0  0  0  0  0  0
   -4.0016    3.3025    4.7786 H   0  0  0  0  0  0  0  0  0  0  0  0
   -2.5246    2.7189    5.6567 H   0  0  0  0  0  0  0  0  0  0  0  0
   -4.1389   -1.0288    1.7432 N   0  0  0  0  0  0  0  0  0  0  0  0
   -5.4424   -1.2311    1.0779 C   0  0  2  0  0  0  0  0  0  0  0  0
   -5.3333   -2.0635   -0.1266 C   0  0  0  0  0  0  0  0  0  0  0  0
   -6.2592   -2.3519   -0.8842 O   0  0  0  0  0  0  0  0  0  0  0  0
   -6.1686    0.0571    0.9234 C   0  0  0  0  0  0  0  0  0  0  0  0
   -5.5415    1.1429    0.1482 C   0  0  0  0  0  0  0  0  0  0  0  0
   -5.3124    0.7767   -1.2725 C   0  0  0  0  0  0  0  0  0  0  0  0
   -4.6764    1.8796   -2.0206 N   0  0  0  0  0  0  0  0  0  0  0  0
   -4.4002    1.7323   -3.4298 C   0  0  0  0  0  0  0  0  0  0  0  0
   -3.7876    2.7576   -4.1690 N   0  0  0  0  0  0  0  0  0  0  0  0
   -4.7161    0.6321   -4.0300 N   0  0  0  0  0  0  0  0  0  0  0  0
   -3.3372   -0.6648    1.2434 H   0  0  0  0  0  0  0  0  0  0  0  0
   -6.1026   -1.8316    1.7939 H   0  0  0  0  0  0  0  0  0  0  0  0
   -7.1786   -0.2261    0.4943 H   0  0  0  0  0  0  0  0  0  0  0  0
   -6.4465    0.3846    1.9707 H   0  0  0  0  0  0  0  0  0  0  0  0
   -6.2857    1.9973    0.1334 H   0  0  0  0  0  0  0  0  0  0  0  0
   -4.6516    1.5959    0.6381 H   0  0  0  0  0  0  0  0  0  0  0  0
   -6.2623    0.6033   -1.8195 H   0  0  0  0  0  0  0  0  0  0  0  0
   -4.7032   -0.1297   -1.4461 H   0  0  0  0  0  0  0  0  0  0  0  0
   -4.4242    2.7689   -1.5388 H   0  0  0  0  0  0  0  0  0  0  0  0
   -3.9040    3.7789   -4.0137 H   0  0  0  0  0  0  0  0  0  0  0  0
   -3.1516    2.4743   -4.9520 H   0  0  0  0  0  0  0  0  0  0  0  0
   -4.5390    0.4703   -5.0490 H   0  0  0  0  0  0  0  0  0  0  0  0
   -5.1642   -0.1210   -3.5039 H   0  0  0  0  0  0  0  0  0  0  0  0
   -4.0615   -2.5994   -0.4761 N   0  0  0  0  0  0  0  0  0  0  0  0
   -3.8477   -3.4225   -1.6724 C   0  0  2  0  0  0  0  0  0  0  0  0
   -3.4724   -4.7869   -1.3590 C   0  0  0  0  0  0  0  0  0  0  0  0
   -3.1800   -5.1289   -0.1792 O   0  0  0  0  0  0  0  0  0  0  0  0
   -2.9521   -2.6742   -2.6308 C   0  0  0  0  0  0  0  0  0  0  0  0
   -2.3739   -3.5654   -4.0445 S   0  0  0  0  0  0  0  0  0  0  0  0
   -3.2898   -2.3864    0.1490 H   0  0  0  0  0  0  0  0  0  0  0  0
   -4.8574   -3.4709   -2.1670 H   0  0  0  0  0  0  0  0  0  0  0  0
   -3.5272   -1.7696   -3.0398 H   0  0  0  0  0  0  0  0  0  0  0  0
   -2.1386   -2.2176   -2.0656 H   0  0  0  0  0  0  0  0  0  0  0  0
   -3.4211   -5.8013   -2.3502 N   0  0  0  0  0  0  0  0  0  0  0  0
   -3.0509   -7.1808   -2.0356 C   0  0  2  0  0  0  0  0  0  0  0  0
   -2.2151   -7.8207   -3.0396 C   0  0  0  0  0  0  0  0  0  0  0  0
   -1.7916   -7.2629   -4.0967 O   0  0  0  0  0  0  0  0  0  0  0  0
   -4.3484   -7.9774   -1.9003 C   0  0  0  0  0  0  0  0  0  0  0  0
   -5.1725   -7.3804   -0.8005 C   0  0  0  0  0  0  0  0  0  0  0  0
   -5.0115   -7.8273    0.5155 C   0  0  0  0  0  0  0  0  0  0  0  0
   -6.0883   -6.3809   -1.0882 C   0  0  0  0  0  0  0  0  0  0  0  0
   -5.7712   -7.2660    1.5308 C   0  0  0  0  0  0  0  0  0  0  0  0
   -6.8273   -5.8412   -0.0728 C   0  0  0  0  0  0  0  0  0  0  0  0
   -6.6799   -6.2693    1.2261 C   0  0  0  0  0  0  0  0  0  0  0  0
   -7.4075   -5.7503    2.2900 O   0  0  0  0  0  0  0  0  0  0  0  0
   -3.6461   -5.6276   -3.3595 H   0  0  0  0  0  0  0  0  0  0  0  0
   -2.6032   -7.2309   -1.0153 H   0  0  0  0  0  0  0  0  0  0  0  0
   -4.9360   -7.9318   -2.8259 H   0  0  0  0  0  0  0  0  0  0  0  0
   -4.1349   -9.0141   -1.6538 H   0  0  0  0  0  0  0  0  0  0  0  0
   -4.2929   -8.6168    0.7609 H   0  0  0  0  0  0  0  0  0  0  0  0
   -6.1730   -6.0714   -2.1197 H   0  0  0  0  0  0  0  0  0  0  0  0
   -5.6493   -7.6114    2.5683 H   0  0  0  0  0  0  0  0  0  0  0  0
   -7.5382   -5.0626   -0.3059 H   0  0  0  0  0  0  0  0  0  0  0  0
   -7.1040   -4.9190    2.7988 H   0  0  0  0  0  0  0  0  0  0  0  0
   -1.8290   -9.1745   -2.8491 N   0  0  0  0  0  0  0  0  0  0  0  0
   -0.9886   -9.8709   -3.8323 C   0  0  2  0  0  0  0  0  0  0  0  0
   -1.8313  -10.9439   -4.4254 C   0  0  0  0  0  0  0  0  0  0  0  0
   -1.3179  -11.7014   -5.3065 O   0  0  0  0  0  0  0  0  0  0  0  0
    0.2079  -10.3895   -3.1079 C   0  0  0  0  0  0  0  0  0  0  0  0
   -2.1433   -9.6878   -1.9958 H   0  0  0  0  0  0  0  0  0  0  0  0
   -0.7032   -9.1828   -4.6368 H   0  0  0  0  0  0  0  0  0  0  0  0
    0.6864   -9.5167   -2.6084 H   0  0  0  0  0  0  0  0  0  0  0  0
   -0.1052  -11.1465   -2.3474 H   0  0  0  0  0  0  0  0  0  0  0  0
    0.9334  -10.8083   -3.8263 H   0  0  0  0  0  0  0  0  0  0  0  0
   -3.1819  -11.1687   -4.0594 N   0  0  0  0  0  0  0  0  0  0  0  0
   -3.8829  -10.3851   -4.0228 H   0  0  0  0  0  0  0  0  0  0  0  0
   -3.5596  -12.1248   -3.8038 H   0  0  0  0  0  0  0  0  0  0  0  0
   -0.5911   -3.7063   -2.9867 H   0  0  0  0  0  0  0  0  0  0  0  0
    2.0647   -3.1670   -2.0214 H   0  0  0  0  0  0  0  0  0  0  0  0
    0.5104   -0.9140   -0.9743 H   0  0  0  0  0  0  0  0  0  0  0  0
    1.9982   -0.4651   -3.5957 H   0  0  0  0  0  0  0  0  0  0  0  0
   -0.1502   -0.0058   -4.6987 H   0  0  0  0  0  0  0  0  0  0  0  0
    0.7605   -2.0288   -5.0804 H   0  0  0  0  0  0  0  0  0  0  0  0
    0.0783    1.2974   -1.9364 H   0  0  0  0  0  0  0  0  0  0  0  0
    2.9513    1.0478   -1.9547 H   0  0  0  0  0  0  0  0  0  0  0  0
    2.3963    5.4860    1.9634 H   0  0  0  0  0  0  0  0  0  0  0  0
    1.6418    3.0518    1.4126 H   0  0  0  0  0  0  0  0  0  0  0  0
    4.5370    3.3549    2.5461 H   0  0  0  0  0  0  0  0  0  0  0  0
    5.0920    2.5653   -0.1418 H   0  0  0  0  0  0  0  0  0  0  0  0
    2.2617   -1.5573    4.9444 H   0  0  0  0  0  0  0  0  0  0  0  0
    3.8101   -2.8968    4.0823 H   0  0  0  0  0  0  0  0  0  0  0  0
  1  2  1  0
  1 11  1  6
  1 12  1  0
  1 13  1  0
  2  3  1  0
  2  7  1  0
  3  4  1  0
  3 10  1  0
  4  5  1  0
  4 14  1  0
  5  6  1  0
  5  9  1  0
  6  7  1  0
  6 15  1  0
  7  8  1  0
  8 16  1  6
  8 17  1  0
  8171  1  0
  9 19  1  0
  9 21  1  0
 10 18  1  6
 10 20  1  0
 10118  1  0
 23 38  1  0
 38 39  1  0
 38 46  1  0
 39 40  1  0
 39 44  1  0
 39 47  1  6
 40 41  1  0
 40 48  1  1
 40 49  1  0
 41 42  1  0
 41 50  1  6
 41 51  1  0
 42 43  1  0
 42 52  1  6
 42 53  1  0
 43 54  1  1
 43 55  1  0
 44 45  1  0
 44 57  1  0
 57 58  1  0
 57 65  1  0
 58 59  1  0
 58 61  1  0
 58 66  1  6
 59 60  1  0
 59 76  1  0
 61 62  1  0
 61 67  1  6
 61 68  1  0
 62 63  1  0
 62 69  1  1
 62 70  1  0
 63 64  1  0
 63 71  1  6
 63 72  1  0
 64 73  1  1
 64 74  1  0
 64 75  1  0
 78 97  1  0
 97 98  1  0
 97104  1  0
 98 99  1  0
 98101  1  0
 98105  1  1
 99100  1  0
 99113  1  0
101102  1  0
101106  1  6
101107  1  0
102103  1  0
102108  1  6
102109  1  0
103110  1  6
103111  1  0
199207  1  0
207208  1  0
207209  1  0
 22 21  1  0
 23 22  1  0
 24 23  2  0
 25 22  1  0
 26 25  1  0
 27 26  1  0
 28 26  2  0
 29 27  2  0
 30 28  1  0
 30 29  1  0
 31 21  1  0
 22 32  1  6
 33 25  1  0
 34 25  1  0
 35 28  1  0
 36 29  1  0
 37 30  1  0
 56 43  1  0
 77 76  1  0
 78 77  1  0
 79 78  2  0
 80 77  1  0
 81 80  1  0
 82 81  2  0
 83 81  1  0
 84 82  1  0
 85 83  2  0
 86 85  1  0
 86 84  2  0
 87 86  1  0
 88 76  1  0
 77 89  1  6
 90 80  1  0
 91 80  1  0
 92 82  1  0
 93 83  1  0
 94 84  1  0
 95 85  1  0
 96 87  1  0
112103  1  0
114113  1  0
115114  1  0
116115  2  0
117114  1  0
118117  1  0
119113  1  0
114120  1  6
121117  1  0
122117  1  0
123115  1  0
124123  1  0
125124  1  0
126125  2  0
127124  1  0
128127  1  0
129127  1  0
130128  1  0
131123  1  0
124132  1  1
127133  1  1
134128  1  0
135128  1  0
136129  1  0
137129  1  0
138129  1  0
139130  1  0
140130  1  0
141130  1  0
142125  1  0
143142  1  0
144143  1  0
145144  2  0
146143  1  0
147146  1  0
148147  1  0
149148  1  0
150149  1  0
151150  1  0
152150  2  0
153142  1  0
143154  1  1
155146  1  0
156146  1  0
157147  1  0
158147  1  0
159148  1  0
160148  1  0
161149  1  0
162151  1  0
163151  1  0
164152  1  0
165152  1  0
166144  1  0
167166  1  0
168167  1  0
169168  2  0
170167  1  0
171170  1  0
172166  1  0
167173  1  6
174170  1  0
175170  1  0
176168  1  0
177176  1  0
178177  1  0
179178  2  0
180177  1  0
181180  1  0
182181  2  0
183181  1  0
184182  1  0
185183  2  0
186185  1  0
186184  2  0
187186  1  0
188176  1  0
177189  1  1
190180  1  0
191180  1  0
192182  1  0
193183  1  0
194184  1  0
195185  1  0
196187  1  0
197178  1  0
198197  1  0
199198  1  0
200199  2  0
201198  1  0
202197  1  0
198203  1  6
204201  1  0
205201  1  0
206201  1  0
  2210  1  1
  3211  1  6
  4212  1  0
  5213  1  0
  6214  1  0
  7215  1  0
  9216  1  0
 19217  1  0
 44218  1  0
 45219  1  0
 59220  1  0
 60221  1  0
 99222  1  0
100223  1  0
M  CHG  3  43   1 103   1 152   1
M  END
$$$$
BP70
     RDKit          3D

223228  0  0  0  0  0  0  0  0999 V2000
   -0.5639    3.0646    0.8043 C   0  0  2  0  0  0  0  0  0  0  0  0
   -1.0173    3.1102   -0.6006 C   0  0  1  0  0  0  0  0  0  0  0  0
   -0.3172    3.8786   -1.6357 C   0  0  1  0  0  0  0  0  0  0  0  0
   -1.4106    4.1563   -2.6890 C   0  0  0  0  0  0  0  0  0  0  0  0
   -2.7001    3.4585   -2.5871 C   0  0  0  0  0  0  0  0  0  0  0  0
   -2.8435    2.1784   -1.8641 C   0  0  0  0  0  0  0  0  0  0  0  0
   -1.4643    1.8119   -1.1805 C   0  0  0  0  0  0  0  0  0  0  0  0
   -0.6044    1.2970   -2.3139 C   0  0  2  0  0  0  0  0  0  0  0  0
   -3.8834    4.4335   -2.3150 C   0  0  0  0  0  0  0  0  0  0  0  0
    0.3089    5.1918   -1.2189 C   0  0  1  0  0  0  0  0  0  0  0  0
   -1.3906    3.1789    1.5766 H   0  0  0  0  0  0  0  0  0  0  0  0
    0.0502    3.9645    0.9803 H   0  0  0  0  0  0  0  0  0  0  0  0
   -0.1217    2.1028    1.0290 H   0  0  0  0  0  0  0  0  0  0  0  0
   -0.9313    4.1717   -3.6977 H   0  0  0  0  0  0  0  0  0  0  0  0
   -3.0821    1.2913   -2.4417 H   0  0  0  0  0  0  0  0  0  0  0  0
    0.4589    1.4832   -2.1668 H   0  0  0  0  0  0  0  0  0  0  0  0
   -0.9151    1.6569   -3.3059 H   0  0  0  0  0  0  0  0  0  0  0  0
   -0.1062    5.9640   -1.9445 H   0  0  0  0  0  0  0  0  0  0  0  0
   -4.8928    3.9606   -3.2188 O   0  0  0  0  0  0  0  0  0  0  0  0
   -0.0846    5.5575   -0.2484 H   0  0  0  0  0  0  0  0  0  0  0  0
   -4.3895    4.3531   -1.0165 N   0  0  0  0  0  0  0  0  0  0  0  0
   -4.9361    5.4668   -0.4345 C   0  0  2  0  0  0  0  0  0  0  0  0
   -5.2925    5.2992    1.0311 C   0  0  0  0  0  0  0  0  0  0  0  0
   -5.8022    6.2004    1.7041 O   0  0  0  0  0  0  0  0  0  0  0  0
   -5.9429    6.3471   -1.0660 C   0  0  0  0  0  0  0  0  0  0  0  0
   -5.5738    7.0740   -2.2853 C   0  0  0  0  0  0  0  0  0  0  0  0
   -5.6536    6.8414   -3.5896 N   0  0  0  0  0  0  0  0  0  0  0  0
   -4.9813    8.3562   -2.2107 C   0  0  0  0  0  0  0  0  0  0  0  0
   -5.1596    7.8721   -4.3209 C   0  0  0  0  0  0  0  0  0  0  0  0
   -4.7441    8.8087   -3.4470 N   0  0  0  0  0  0  0  0  0  0  0  0
   -5.0734    3.5321   -0.8839 H   0  0  0  0  0  0  0  0  0  0  0  0
   -4.0216    6.2085   -0.3040 H   0  0  0  0  0  0  0  0  0  0  0  0
   -6.8859    5.7738   -1.3061 H   0  0  0  0  0  0  0  0  0  0  0  0
   -6.3234    7.1154   -0.3188 H   0  0  0  0  0  0  0  0  0  0  0  0
   -4.7502    8.8982   -1.2796 H   0  0  0  0  0  0  0  0  0  0  0  0
   -5.0897    7.9648   -5.4039 H   0  0  0  0  0  0  0  0  0  0  0  0
   -4.3031    9.7454   -3.6150 H   0  0  0  0  0  0  0  0  0  0  0  0
   -5.0590    4.0638    1.7332 N   0  0  0  0  0  0  0  0  0  0  0  0
   -5.3526    3.9879    3.1494 C   0  0  1  0  0  0  0  0  0  0  0  0
   -6.6980    3.3051    3.3964 C   0  0  2  0  0  0  0  0  0  0  0  0
   -6.9921    3.2203    4.8730 C   0  0  2  0  0  0  0  0  0  0  0  0
   -8.3452    2.5691    5.0721 C   0  0  1  0  0  0  0  0  0  0  0  0
   -8.6755    2.4688    6.5165 N   0  0  2  0  0  0  0  0  0  0  0  0
   -4.2850    3.3930    4.0167 C   0  0  0  0  0  0  0  0  0  0  0  0
   -3.1333    4.1421    3.8194 O   0  0  0  0  0  0  0  0  0  0  0  0
   -4.6929    3.3159    1.1471 H   0  0  0  0  0  0  0  0  0  0  0  0
   -5.5378    5.0218    3.5123 H   0  0  0  0  0  0  0  0  0  0  0  0
   -6.8178    2.3621    2.8738 H   0  0  0  0  0  0  0  0  0  0  0  0
   -7.4769    4.0005    2.9777 H   0  0  0  0  0  0  0  0  0  0  0  0
   -6.9635    4.2066    5.3736 H   0  0  0  0  0  0  0  0  0  0  0  0
   -6.2166    2.5862    5.3988 H   0  0  0  0  0  0  0  0  0  0  0  0
   -9.1194    3.2074    4.5575 H   0  0  0  0  0  0  0  0  0  0  0  0
   -8.3670    1.5729    4.6310 H   0  0  0  0  0  0  0  0  0  0  0  0
   -8.0775    3.1697    7.0593 H   0  0  0  0  0  0  0  0  0  0  0  0
   -8.5120    1.4809    6.8543 H   0  0  0  0  0  0  0  0  0  0  0  0
   -9.7145    2.7204    6.6285 H   0  0  0  0  0  0  0  0  0  0  0  0
   -4.1913    2.0065    4.0883 N   0  0  0  0  0  0  0  0  0  0  0  0
   -3.3815    1.3320    5.0155 C   0  0  2  0  0  0  0  0  0  0  0  0
   -1.8811    1.2827    4.8190 C   0  0  0  0  0  0  0  0  0  0  0  0
   -1.3869    2.6146    4.8524 O   0  0  0  0  0  0  0  0  0  0  0  0
   -3.9666    0.0109    5.4915 C   0  0  2  0  0  0  0  0  0  0  0  0
   -3.1157   -0.7134    6.4827 C   0  0  1  0  0  0  0  0  0  0  0  0
   -3.8057   -1.9978    6.9046 C   0  0  1  0  0  0  0  0  0  0  0  0
   -4.0547   -2.9147    5.7300 C   0  0  2  0  0  0  0  0  0  0  0  0
   -4.0179    1.6182    3.1225 H   0  0  0  0  0  0  0  0  0  0  0  0
   -3.4647    1.9709    5.9849 H   0  0  0  0  0  0  0  0  0  0  0  0
   -4.2546   -0.5907    4.6274 H   0  0  0  0  0  0  0  0  0  0  0  0
   -4.9342    0.2142    6.0416 H   0  0  0  0  0  0  0  0  0  0  0  0
   -2.1443   -1.0601    6.0659 H   0  0  0  0  0  0  0  0  0  0  0  0
   -3.0189   -0.0952    7.3921 H   0  0  0  0  0  0  0  0  0  0  0  0
   -3.0984   -2.5362    7.5950 H   0  0  0  0  0  0  0  0  0  0  0  0
   -4.7568   -1.7677    7.4418 H   0  0  0  0  0  0  0  0  0  0  0  0
   -5.1634   -3.0532    5.6064 H   0  0  0  0  0  0  0  0  0  0  0  0
   -3.6561   -3.9313    5.8879 H   0  0  0  0  0  0  0  0  0  0  0  0
   -3.6438   -2.5350    4.7802 H   0  0  0  0  0  0  0  0  0  0  0  0
   -1.4854    0.6916    3.6142 N   0  0  0  0  0  0  0  0  0  0  0  0
   -0.1923    0.2144    3.4574 C   0  0  2  0  0  0  0  0  0  0  0  0
    0.9684    1.1226    3.5410 C   0  0  0  0  0  0  0  0  0  0  0  0
    0.8718    2.2776    4.0165 O   0  0  0  0  0  0  0  0  0  0  0  0
   -0.0279   -0.7098    2.2743 C   0  0  0  0  0  0  0  0  0  0  0  0
   -0.9158   -1.9092    2.3896 C   0  0  0  0  0  0  0  0  0  0  0  0
   -2.1923   -1.9476    1.8712 C   0  0  0  0  0  0  0  0  0  0  0  0
   -0.4223   -3.0386    3.0563 C   0  0  0  0  0  0  0  0  0  0  0  0
   -2.9678   -3.0991    2.0156 C   0  0  0  0  0  0  0  0  0  0  0  0
   -1.2058   -4.1469    3.1806 C   0  0  0  0  0  0  0  0  0  0  0  0
   -2.5001   -4.2225    2.6694 C   0  0  0  0  0  0  0  0  0  0  0  0
   -3.2638   -5.3811    2.8194 O   0  0  0  0  0  0  0  0  0  0  0  0
   -1.8219    1.2047    2.7776 H   0  0  0  0  0  0  0  0  0  0  0  0
    0.0275   -0.5178    4.3457 H   0  0  0  0  0  0  0  0  0  0  0  0
   -0.2507   -0.2505    1.3006 H   0  0  0  0  0  0  0  0  0  0  0  0
    0.9933   -1.1074    2.2518 H   0  0  0  0  0  0  0  0  0  0  0  0
   -2.5510   -1.0676    1.3615 H   0  0  0  0  0  0  0  0  0  0  0  0
    0.5661   -2.9761    3.4441 H   0  0  0  0  0  0  0  0  0  0  0  0
   -3.9590   -3.0841    1.5980 H   0  0  0  0  0  0  0  0  0  0  0  0
   -0.7752   -4.9990    3.7152 H   0  0  0  0  0  0  0  0  0  0  0  0
   -3.3053   -6.1068    2.0920 H   0  0  0  0  0  0  0  0  0  0  0  0
    2.2752    0.8104    3.1022 N   0  0  0  0  0  0  0  0  0  0  0  0
    3.4429    1.7272    3.2275 C   0  0  2  0  0  0  0  0  0  0  0  0
    3.4460    2.6929    2.0847 C   0  0  0  0  0  0  0  0  0  0  0  0
    2.2749    3.4529    2.2598 O   0  0  0  0  0  0  0  0  0  0  0  0
    4.6441    0.9835    3.5993 C   0  0  2  0  0  0  0  0  0  0  0  0
    5.9416    1.6570    3.8177 C   0  0  1  0  0  0  0  0  0  0  0  0
    6.4624    2.2599    2.6049 N   0  0  2  0  0  0  0  0  0  0  0  0
    2.4600   -0.0748    2.6838 H   0  0  0  0  0  0  0  0  0  0  0  0
    3.1176    2.3356    4.1589 H   0  0  0  0  0  0  0  0  0  0  0  0
    4.8511    0.1914    2.7807 H   0  0  0  0  0  0  0  0  0  0  0  0
    4.4381    0.2821    4.4799 H   0  0  0  0  0  0  0  0  0  0  0  0
    5.8314    2.5061    4.5533 H   0  0  0  0  0  0  0  0  0  0  0  0
    6.6960    0.9295    4.2148 H   0  0  0  0  0  0  0  0  0  0  0  0
    6.4831    3.3219    2.6684 H   0  0  0  0  0  0  0  0  0  0  0  0
    6.0010    1.9030    1.7315 H   0  0  0  0  0  0  0  0  0  0  0  0
    7.5306    1.9597    2.5257 H   0  0  0  0  0  0  0  0  0  0  0  0
    3.5119    2.1397    0.7624 N   0  0  0  0  0  0  0  0  0  0  0  0
    2.9778    3.0011   -0.2555 C   0  0  2  0  0  0  0  0  0  0  0  0
    3.0888    2.4090   -1.6049 C   0  0  0  0  0  0  0  0  0  0  0  0
    3.0112    1.1817   -1.6745 O   0  0  0  0  0  0  0  0  0  0  0  0
    3.1201    4.4367   -0.2339 C   0  0  0  0  0  0  0  0  0  0  0  0
    2.0689    5.2847   -1.3947 S   0  0  0  0  0  0  0  0  0  0  0  0
    3.0227    1.1941    0.7395 H   0  0  0  0  0  0  0  0  0  0  0  0
    1.8159    2.7508   -0.1082 H   0  0  0  0  0  0  0  0  0  0  0  0
    4.1931    4.6747   -0.5564 H   0  0  0  0  0  0  0  0  0  0  0  0
    3.0458    4.9648    0.7340 H   0  0  0  0  0  0  0  0  0  0  0  0
    3.2947    3.1055   -2.8230 N   0  0  0  0  0  0  0  0  0  0  0  0
    3.0910    2.3542   -4.0568 C   0  0  2  0  0  0  0  0  0  0  0  0
    3.8471    1.0764   -4.0417 C   0  0  0  0  0  0  0  0  0  0  0  0
    4.7764    0.8074   -3.2719 O   0  0  0  0  0  0  0  0  0  0  0  0
    3.1991    3.1958   -5.2369 C   0  0  2  0  0  0  0  0  0  0  0  0
    2.1554    4.3241   -5.2235 C   0  0  0  0  0  0  0  0  0  0  0  0
    3.1543    2.5932   -6.5858 C   0  0  0  0  0  0  0  0  0  0  0  0
    2.2858    5.1881   -6.4591 C   0  0  0  0  0  0  0  0  0  0  0  0
    3.5931    4.0641   -2.7678 H   0  0  0  0  0  0  0  0  0  0  0  0
    2.0217    1.9796   -3.9402 H   0  0  0  0  0  0  0  0  0  0  0  0
    4.1773    3.7681   -5.1761 H   0  0  0  0  0  0  0  0  0  0  0  0
    1.1636    3.8182   -5.1815 H   0  0  0  0  0  0  0  0  0  0  0  0
    2.3277    4.8939   -4.3136 H   0  0  0  0  0  0  0  0  0  0  0  0
    3.2903    3.4607   -7.3089 H   0  0  0  0  0  0  0  0  0  0  0  0
    4.0082    1.9348   -6.8613 H   0  0  0  0  0  0  0  0  0  0  0  0
    2.1611    2.1980   -6.8817 H   0  0  0  0  0  0  0  0  0  0  0  0
    1.7027    4.7217   -7.2711 H   0  0  0  0  0  0  0  0  0  0  0  0
    3.3180    5.4130   -6.7198 H   0  0  0  0  0  0  0  0  0  0  0  0
    1.7354    6.1505   -6.2204 H   0  0  0  0  0  0  0  0  0  0  0  0
    3.5146    0.0149   -4.9760 N   0  0  0  0  0  0  0  0  0  0  0  0
    4.2014   -1.2406   -4.7561 C   0  0  2  0  0  0  0  0  0  0  0  0
    3.6363   -1.8551   -3.5091 C   0  0  0  0  0  0  0  0  0  0  0  0
    4.2089   -2.6617   -2.7891 O   0  0  0  0  0  0  0  0  0  0  0  0
    5.6453   -1.1906   -4.9044 C   0  0  0  0  0  0  0  0  0  0  0  0
    6.3551   -2.5232   -4.7063 C   0  0  0  0  0  0  0  0  0  0  0  0
    5.8831   -3.5376   -5.7246 C   0  0  0  0  0  0  0  0  0  0  0  0
    6.5983   -4.7736   -5.4944 N   0  0  0  0  0  0  0  0  0  0  0  0
    6.3015   -5.8627   -6.3871 C   0  0  0  0  0  0  0  0  0  0  0  0
    6.9534   -7.1199   -6.2569 N   0  0  0  0  0  0  0  0  0  0  0  0
    5.4264   -5.6993   -7.3400 N   0  0  0  0  0  0  0  0  0  0  0  0
    2.8451    0.2527   -5.6819 H   0  0  0  0  0  0  0  0  0  0  0  0
    3.8005   -1.9108   -5.5927 H   0  0  0  0  0  0  0  0  0  0  0  0
    5.8477   -0.9656   -6.0142 H   0  0  0  0  0  0  0  0  0  0  0  0
    6.2395   -0.4449   -4.3882 H   0  0  0  0  0  0  0  0  0  0  0  0
    7.4280   -2.3435   -4.9396 H   0  0  0  0  0  0  0  0  0  0  0  0
    6.3142   -2.8931   -3.6837 H   0  0  0  0  0  0  0  0  0  0  0  0
    4.7740   -3.6978   -5.7067 H   0  0  0  0  0  0  0  0  0  0  0  0
    6.1152   -3.2229   -6.7556 H   0  0  0  0  0  0  0  0  0  0  0  0
    7.2962   -4.9008   -4.7320 H   0  0  0  0  0  0  0  0  0  0  0  0
    7.1662   -7.7333   -7.1001 H   0  0  0  0  0  0  0  0  0  0  0  0
    7.2519   -7.5039   -5.3378 H   0  0  0  0  0  0  0  0  0  0  0  0
    4.9580   -4.7733   -7.4336 H   0  0  0  0  0  0  0  0  0  0  0  0
    5.1842   -6.4484   -8.0033 H   0  0  0  0  0  0  0  0  0  0  0  0
    2.2848   -1.5077   -3.0711 N   0  0  0  0  0  0  0  0  0  0  0  0
    1.6680   -2.0277   -1.9180 C   0  0  2  0  0  0  0  0  0  0  0  0
    1.4492   -3.5051   -1.8630 C   0  0  0  0  0  0  0  0  0  0  0  0
    0.8796   -3.9165   -0.7902 O   0  0  0  0  0  0  0  0  0  0  0  0
    0.5638   -1.2597   -1.3111 C   0  0  0  0  0  0  0  0  0  0  0  0
   -0.6657   -0.5547   -2.3875 S   0  0  0  0  0  0  0  0  0  0  0  0
    1.8251   -0.8447   -3.6936 H   0  0  0  0  0  0  0  0  0  0  0  0
    2.5422   -1.9656   -1.1266 H   0  0  0  0  0  0  0  0  0  0  0  0
    1.0178   -0.4046   -0.7236 H   0  0  0  0  0  0  0  0  0  0  0  0
    0.1122   -1.8904   -0.4936 H   0  0  0  0  0  0  0  0  0  0  0  0
    1.8249   -4.4251   -2.8663 N   0  0  0  0  0  0  0  0  0  0  0  0
    1.5515   -5.8447   -2.5444 C   0  0  2  0  0  0  0  0  0  0  0  0
    2.7916   -6.2571   -1.7230 C   0  0  0  0  0  0  0  0  0  0  0  0
    3.6938   -5.4053   -1.5362 O   0  0  0  0  0  0  0  0  0  0  0  0
    1.4227   -6.7291   -3.7160 C   0  0  0  0  0  0  0  0  0  0  0  0
    0.3294   -6.3072   -4.6051 C   0  0  0  0  0  0  0  0  0  0  0  0
    0.5680   -5.4578   -5.6550 C   0  0  0  0  0  0  0  0  0  0  0  0
   -0.9803   -6.7558   -4.4517 C   0  0  0  0  0  0  0  0  0  0  0  0
   -0.4182   -5.0448   -6.5419 C   0  0  0  0  0  0  0  0  0  0  0  0
   -1.9867   -6.3822   -5.2921 C   0  0  0  0  0  0  0  0  0  0  0  0
   -1.7077   -5.5146   -6.3546 C   0  0  0  0  0  0  0  0  0  0  0  0
   -2.7411   -5.1333   -7.2179 O   0  0  0  0  0  0  0  0  0  0  0  0
    2.2447   -4.1320   -3.7596 H   0  0  0  0  0  0  0  0  0  0  0  0
    0.7573   -5.8487   -1.7925 H   0  0  0  0  0  0  0  0  0  0  0  0
    2.4081   -6.7616   -4.2564 H   0  0  0  0  0  0  0  0  0  0  0  0
    1.2423   -7.7916   -3.4306 H   0  0  0  0  0  0  0  0  0  0  0  0
    1.5660   -5.0454   -5.8655 H   0  0  0  0  0  0  0  0  0  0  0  0
   -1.2004   -7.4272   -3.6298 H   0  0  0  0  0  0  0  0  0  0  0  0
   -0.2286   -4.3816   -7.3638 H   0  0  0  0  0  0  0  0  0  0  0  0
   -3.0055   -6.7346   -5.1687 H   0  0  0  0  0  0  0  0  0  0  0  0
   -3.1565   -5.7950   -7.8734 H   0  0  0  0  0  0  0  0  0  0  0  0
    2.9325   -7.5472   -1.1871 N   0  0  0  0  0  0  0  0  0  0  0  0
    4.1598   -7.8022   -0.4317 C   0  0  2  0  0  0  0  0  0  0  0  0
    4.8258   -9.0155   -0.9038 C   0  0  0  0  0  0  0  0  0  0  0  0
    4.4091   -9.7650   -1.8218 O   0  0  0  0  0  0  0  0  0  0  0  0
    3.7886   -8.0140    1.0442 C   0  0  0  0  0  0  0  0  0  0  0  0
    2.1990   -8.2689   -1.3242 H   0  0  0  0  0  0  0  0  0  0  0  0
    4.8447   -6.9248   -0.4810 H   0  0  0  0  0  0  0  0  0  0  0  0
    4.7181   -8.2860    1.6074 H   0  0  0  0  0  0  0  0  0  0  0  0
    3.3894   -7.0898    1.4914 H   0  0  0  0  0  0  0  0  0  0  0  0
    3.1354   -8.8950    1.0959 H   0  0  0  0  0  0  0  0  0  0  0  0
    6.0597   -9.3750   -0.2607 N   0  0  0  0  0  0  0  0  0  0  0  0
    6.1125   -9.6078    0.7600 H   0  0  0  0  0  0  0  0  0  0  0  0
    6.8985   -9.3816   -0.8976 H   0  0  0  0  0  0  0  0  0  0  0  0
   -2.0375    3.7162   -0.4167 H   0  0  0  0  0  0  0  0  0  0  0  0
    0.4701    3.3748   -2.2226 H   0  0  0  0  0  0  0  0  0  0  0  0
   -1.6268    5.2684   -2.5224 H   0  0  0  0  0  0  0  0  0  0  0  0
   -2.9094    3.1652   -3.6772 H   0  0  0  0  0  0  0  0  0  0  0  0
   -3.5299    2.2811   -1.0268 H   0  0  0  0  0  0  0  0  0  0  0  0
   -1.6149    1.0269   -0.4585 H   0  0  0  0  0  0  0  0  0  0  0  0
   -3.5129    5.4022   -2.6613 H   0  0  0  0  0  0  0  0  0  0  0  0
   -5.6372    3.5558   -2.7480 H   0  0  0  0  0  0  0  0  0  0  0  0
   -4.6075    3.7310    5.0745 H   0  0  0  0  0  0  0  0  0  0  0  0
   -3.1558    5.0247    4.2813 H   0  0  0  0  0  0  0  0  0  0  0  0
   -1.3689    0.7838    5.6590 H   0  0  0  0  0  0  0  0  0  0  0  0
   -1.4493    2.9957    5.7700 H   0  0  0  0  0  0  0  0  0  0  0  0
    4.2545    3.4095    2.2135 H   0  0  0  0  0  0  0  0  0  0  0  0
    2.4419    4.2057    2.8985 H   0  0  0  0  0  0  0  0  0  0  0  0
  1  2  1  0
  1 11  1  1
  1 12  1  0
  1 13  1  0
  2  3  1  0
  2  7  1  0
  3  4  1  0
  3 10  1  0
  4  5  1  0
  4 14  1  0
  5  6  1  0
  5  9  1  0
  6  7  1  0
  6 15  1  0
  7  8  1  0
  8 16  1  1
  8 17  1  0
  8171  1  0
  9 19  1  0
  9 21  1  0
 10 18  1  6
 10 20  1  0
 10118  1  0
 23 38  1  0
 38 39  1  0
 38 46  1  0
 39 40  1  0
 39 44  1  0
 39 47  1  1
 40 41  1  0
 40 48  1  6
 40 49  1  0
 41 42  1  0
 41 50  1  1
 41 51  1  0
 42 43  1  0
 42 52  1  6
 42 53  1  0
 43 54  1  1
 43 55  1  0
 44 45  1  0
 44 57  1  0
 57 58  1  0
 57 65  1  0
 58 59  1  0
 58 61  1  0
 58 66  1  1
 59 60  1  0
 59 76  1  0
 61 62  1  0
 61 67  1  6
 61 68  1  0
 62 63  1  0
 62 69  1  6
 62 70  1  0
 63 64  1  0
 63 71  1  1
 63 72  1  0
 64 73  1  6
 64 74  1  0
 64 75  1  0
 78 97  1  0
 97 98  1  0
 97104  1  0
 98 99  1  0
 98101  1  0
 98105  1  1
 99100  1  0
 99113  1  0
101102  1  0
101106  1  6
101107  1  0
102103  1  0
102108  1  1
102109  1  0
103110  1  1
103111  1  0
199207  1  0
207208  1  0
207209  1  0
 22 21  1  0
 23 22  1  0
 24 23  2  0
 25 22  1  0
 26 25  1  0
 27 26  1  0
 28 26  2  0
 29 27  2  0
 30 28  1  0
 30 29  1  0
 31 21  1  0
 22 32  1  1
 33 25  1  0
 34 25  1  0
 35 28  1  0
 36 29  1  0
 37 30  1  0
 56 43  1  0
 77 76  1  0
 78 77  1  0
 79 78  2  0
 80 77  1  0
 81 80  1  0
 82 81  2  0
 83 81  1  0
 84 82  1  0
 85 83  2  0
 86 85  1  0
 86 84  2  0
 87 86  1  0
 88 76  1  0
 77 89  1  1
 90 80  1  0
 91 80  1  0
 92 82  1  0
 93 83  1  0
 94 84  1  0
 95 85  1  0
 96 87  1  0
112103  1  0
114113  1  0
115114  1  0
116115  2  0
117114  1  0
118117  1  0
119113  1  0
114120  1  1
121117  1  0
122117  1  0
123115  1  0
124123  1  0
125124  1  0
126125  2  0
127124  1  0
128127  1  0
129127  1  0
130128  1  0
131123  1  0
124132  1  1
127133  1  1
134128  1  0
135128  1  0
136129  1  0
137129  1  0
138129  1  0
139130  1  0
140130  1  0
141130  1  0
142125  1  0
143142  1  0
144143  1  0
145144  2  0
146143  1  0
147146  1  0
148147  1  0
149148  1  0
150149  1  0
151150  1  0
152150  2  0
153142  1  0
143154  1  6
155146  1  0
156146  1  0
157147  1  0
158147  1  0
159148  1  0
160148  1  0
161149  1  0
162151  1  0
163151  1  0
164152  1  0
165152  1  0
166144  1  0
167166  1  0
168167  1  0
169168  2  0
170167  1  0
171170  1  0
172166  1  0
167173  1  1
174170  1  0
175170  1  0
176168  1  0
177176  1  0
178177  1  0
179178  2  0
180177  1  0
181180  1  0
182181  2  0
183181  1  0
184182  1  0
185183  2  0
186185  1  0
186184  2  0
187186  1  0
188176  1  0
177189  1  1
190180  1  0
191180  1  0
192182  1  0
193183  1  0
194184  1  0
195185  1  0
196187  1  0
197178  1  0
198197  1  0
199198  1  0
200199  2  0
201198  1  0
202197  1  0
198203  1  1
204201  1  0
205201  1  0
206201  1  0
  2210  1  1
  3211  1  6
  4212  1  0
  5213  1  0
  6214  1  0
  7215  1  0
  9216  1  0
 19217  1  0
 44218  1  0
 45219  1  0
 59220  1  0
 60221  1  0
 99222  1  0
100223  1  0
M  CHG  3  43   1 103   1 152   1
M  END
$$$$
BP70
     RDKit          3D

223228  0  0  0  0  0  0  0  0999 V2000
    3.2418   -5.0632    0.2994 C   0  0  2  0  0  0  0  0  0  0  0  0
    4.0083   -4.1414   -0.5683 C   0  0  1  0  0  0  0  0  0  0  0  0
    3.2540   -3.6855   -1.7880 C   0  0  1  0  0  0  0  0  0  0  0  0
    4.3202   -3.5601   -2.7976 C   0  0  0  0  0  0  0  0  0  0  0  0
    5.0600   -2.2703   -2.3346 C   0  0  0  0  0  0  0  0  0  0  0  0
    4.6416   -1.7812   -0.9999 C   0  0  0  0  0  0  0  0  0  0  0  0
    4.5066   -2.8464    0.0666 C   0  0  0  0  0  0  0  0  0  0  0  0
    3.5874   -2.6717    1.1668 C   0  0  2  0  0  0  0  0  0  0  0  0
    4.9645   -1.3890   -3.5230 C   0  0  0  0  0  0  0  0  0  0  0  0
    1.9867   -4.3616   -2.0909 C   0  0  1  0  0  0  0  0  0  0  0  0
    3.9002   -5.4557    1.1018 H   0  0  0  0  0  0  0  0  0  0  0  0
    3.0969   -5.9802   -0.3704 H   0  0  0  0  0  0  0  0  0  0  0  0
    2.2273   -4.8100    0.5844 H   0  0  0  0  0  0  0  0  0  0  0  0
    4.9940   -4.4418   -2.7437 H   0  0  0  0  0  0  0  0  0  0  0  0
    5.5220   -1.1747   -0.6273 H   0  0  0  0  0  0  0  0  0  0  0  0
    3.7582   -3.5817    1.8355 H   0  0  0  0  0  0  0  0  0  0  0  0
    2.5495   -2.8145    0.8323 H   0  0  0  0  0  0  0  0  0  0  0  0
    2.2384   -5.1983   -2.8290 H   0  0  0  0  0  0  0  0  0  0  0  0
    6.0747   -0.4987   -3.3893 O   0  0  0  0  0  0  0  0  0  0  0  0
    1.4346   -4.8317   -1.3020 H   0  0  0  0  0  0  0  0  0  0  0  0
    3.8446   -0.6333   -3.8094 N   0  0  0  0  0  0  0  0  0  0  0  0
    3.5611   -0.2102   -5.1840 C   0  0  2  0  0  0  0  0  0  0  0  0
    2.4662    0.7628   -5.0579 C   0  0  0  0  0  0  0  0  0  0  0  0
    2.0219    0.9771   -3.9087 O   0  0  0  0  0  0  0  0  0  0  0  0
    3.2900   -1.3909   -6.0595 C   0  0  0  0  0  0  0  0  0  0  0  0
    2.9761   -1.2010   -7.4504 C   0  0  0  0  0  0  0  0  0  0  0  0
    3.8796   -1.1257   -8.4515 N   0  0  0  0  0  0  0  0  0  0  0  0
    1.7477   -1.0993   -8.0890 C   0  0  0  0  0  0  0  0  0  0  0  0
    3.2826   -0.9891   -9.6344 C   0  0  0  0  0  0  0  0  0  0  0  0
    1.9178   -0.9691   -9.4165 N   0  0  0  0  0  0  0  0  0  0  0  0
    3.9023    0.2871   -3.2865 H   0  0  0  0  0  0  0  0  0  0  0  0
    4.4605    0.3076   -5.5430 H   0  0  0  0  0  0  0  0  0  0  0  0
    4.2212   -2.0323   -6.0273 H   0  0  0  0  0  0  0  0  0  0  0  0
    2.5317   -2.0446   -5.5369 H   0  0  0  0  0  0  0  0  0  0  0  0
    0.7664   -1.1253   -7.6228 H   0  0  0  0  0  0  0  0  0  0  0  0
    3.6936   -0.8975  -10.6295 H   0  0  0  0  0  0  0  0  0  0  0  0
    1.2182   -0.8642  -10.1856 H   0  0  0  0  0  0  0  0  0  0  0  0
    1.8317    1.5105   -6.0744 N   0  0  0  0  0  0  0  0  0  0  0  0
    0.7143    2.4668   -5.7168 C   0  0  1  0  0  0  0  0  0  0  0  0
    1.1531    3.7557   -6.3402 C   0  0  2  0  0  0  0  0  0  0  0  0
    0.4019    4.9857   -6.1831 C   0  0  2  0  0  0  0  0  0  0  0  0
   -0.9739    5.1862   -6.6350 C   0  0  1  0  0  0  0  0  0  0  0  0
   -1.1692    4.9643   -8.0743 N   0  0  2  0  0  0  0  0  0  0  0  0
   -0.5406    1.9450   -6.3762 C   0  0  0  0  0  0  0  0  0  0  0  0
   -0.2725    1.9264   -7.7381 O   0  0  0  0  0  0  0  0  0  0  0  0
    2.1539    1.4053   -7.0237 H   0  0  0  0  0  0  0  0  0  0  0  0
    0.6121    2.4852   -4.6302 H   0  0  0  0  0  0  0  0  0  0  0  0
    1.3173    3.5863   -7.4738 H   0  0  0  0  0  0  0  0  0  0  0  0
    2.2496    3.9570   -6.0504 H   0  0  0  0  0  0  0  0  0  0  0  0
    1.0242    5.8734   -6.5577 H   0  0  0  0  0  0  0  0  0  0  0  0
    0.3765    5.1927   -5.0443 H   0  0  0  0  0  0  0  0  0  0  0  0
   -1.7192    4.6922   -6.0126 H   0  0  0  0  0  0  0  0  0  0  0  0
   -1.1899    6.3263   -6.5359 H   0  0  0  0  0  0  0  0  0  0  0  0
   -1.3675    5.8961   -8.5811 H   0  0  0  0  0  0  0  0  0  0  0  0
   -1.9941    4.2955   -8.2279 H   0  0  0  0  0  0  0  0  0  0  0  0
   -0.2713    4.5467   -8.5156 H   0  0  0  0  0  0  0  0  0  0  0  0
   -0.9270    0.6327   -5.8654 N   0  0  0  0  0  0  0  0  0  0  0  0
   -2.3496    0.5044   -5.6291 C   0  0  2  0  0  0  0  0  0  0  0  0
   -2.7550   -0.8627   -5.1225 C   0  0  0  0  0  0  0  0  0  0  0  0
   -2.4421   -1.8955   -5.9827 O   0  0  0  0  0  0  0  0  0  0  0  0
   -3.1424    0.8136   -6.8653 C   0  0  2  0  0  0  0  0  0  0  0  0
   -2.9164   -0.0286   -8.0528 C   0  0  1  0  0  0  0  0  0  0  0  0
   -3.7915    0.4594   -9.2107 C   0  0  1  0  0  0  0  0  0  0  0  0
   -3.4612   -0.4848  -10.3785 C   0  0  2  0  0  0  0  0  0  0  0  0
   -0.4900    0.5764   -4.9009 H   0  0  0  0  0  0  0  0  0  0  0  0
   -2.5809    1.2856   -4.8645 H   0  0  0  0  0  0  0  0  0  0  0  0
   -3.0110    1.8988   -7.1568 H   0  0  0  0  0  0  0  0  0  0  0  0
   -4.2429    0.7458   -6.6235 H   0  0  0  0  0  0  0  0  0  0  0  0
   -1.8687   -0.1117   -8.3392 H   0  0  0  0  0  0  0  0  0  0  0  0
   -3.2648   -1.1002   -7.9354 H   0  0  0  0  0  0  0  0  0  0  0  0
   -4.8813    0.2965   -9.0091 H   0  0  0  0  0  0  0  0  0  0  0  0
   -3.5834    1.4811   -9.5272 H   0  0  0  0  0  0  0  0  0  0  0  0
   -3.9903   -0.2236  -11.2999 H   0  0  0  0  0  0  0  0  0  0  0  0
   -3.6040   -1.5304  -10.0496 H   0  0  0  0  0  0  0  0  0  0  0  0
   -2.3784   -0.3347  -10.5547 H   0  0  0  0  0  0  0  0  0  0  0  0
   -4.1032   -1.0089   -4.7107 N   0  0  0  0  0  0  0  0  0  0  0  0
   -4.3431   -0.8539   -3.2846 C   0  0  2  0  0  0  0  0  0  0  0  0
   -3.8070   -1.9904   -2.5068 C   0  0  0  0  0  0  0  0  0  0  0  0
   -3.4247   -2.9946   -3.1295 O   0  0  0  0  0  0  0  0  0  0  0  0
   -5.7701   -0.5050   -2.9865 C   0  0  0  0  0  0  0  0  0  0  0  0
   -6.1508   -0.3489   -1.5820 C   0  0  0  0  0  0  0  0  0  0  0  0
   -5.9207    0.8770   -0.9755 C   0  0  0  0  0  0  0  0  0  0  0  0
   -6.7665   -1.3966   -0.8831 C   0  0  0  0  0  0  0  0  0  0  0  0
   -6.3301    1.0033    0.3405 C   0  0  0  0  0  0  0  0  0  0  0  0
   -7.1551   -1.2124    0.4459 C   0  0  0  0  0  0  0  0  0  0  0  0
   -6.9306    0.0047    1.0551 C   0  0  0  0  0  0  0  0  0  0  0  0
   -7.2942    0.2523    2.3891 O   0  0  0  0  0  0  0  0  0  0  0  0
   -4.8430   -0.6460   -5.3021 H   0  0  0  0  0  0  0  0  0  0  0  0
   -3.7418    0.0368   -2.9828 H   0  0  0  0  0  0  0  0  0  0  0  0
   -6.3759   -1.3564   -3.4074 H   0  0  0  0  0  0  0  0  0  0  0  0
   -6.1079    0.3692   -3.6153 H   0  0  0  0  0  0  0  0  0  0  0  0
   -5.4498    1.6813   -1.5172 H   0  0  0  0  0  0  0  0  0  0  0  0
   -6.9255   -2.3228   -1.3978 H   0  0  0  0  0  0  0  0  0  0  0  0
   -6.1558    1.9412    0.8113 H   0  0  0  0  0  0  0  0  0  0  0  0
   -7.6238   -2.0134    0.9916 H   0  0  0  0  0  0  0  0  0  0  0  0
   -6.5875    0.4847    3.0959 H   0  0  0  0  0  0  0  0  0  0  0  0
   -3.6830   -2.0328   -1.1046 N   0  0  0  0  0  0  0  0  0  0  0  0
   -3.1860   -3.1511   -0.3200 C   0  0  2  0  0  0  0  0  0  0  0  0
   -1.7377   -3.3120   -0.8135 C   0  0  0  0  0  0  0  0  0  0  0  0
   -1.2931   -4.3193    0.0321 O   0  0  0  0  0  0  0  0  0  0  0  0
   -3.9699   -4.3641   -0.4704 C   0  0  2  0  0  0  0  0  0  0  0  0
   -3.5114   -5.5562    0.3134 C   0  0  1  0  0  0  0  0  0  0  0  0
   -4.5578   -6.6354    0.0294 N   0  0  2  0  0  0  0  0  0  0  0  0
   -3.9660   -1.1790   -0.6106 H   0  0  0  0  0  0  0  0  0  0  0  0
   -3.0424   -2.8570    0.7595 H   0  0  0  0  0  0  0  0  0  0  0  0
   -4.0538   -4.6642   -1.5701 H   0  0  0  0  0  0  0  0  0  0  0  0
   -5.0628   -4.2550   -0.2070 H   0  0  0  0  0  0  0  0  0  0  0  0
   -2.5763   -6.0382   -0.0167 H   0  0  0  0  0  0  0  0  0  0  0  0
   -3.5527   -5.4329    1.4056 H   0  0  0  0  0  0  0  0  0  0  0  0
   -4.2483   -7.1286   -0.8499 H   0  0  0  0  0  0  0  0  0  0  0  0
   -5.4928   -6.1548   -0.0537 H   0  0  0  0  0  0  0  0  0  0  0  0
   -4.5342   -7.3020    0.8600 H   0  0  0  0  0  0  0  0  0  0  0  0
   -1.1759   -2.0557   -0.6055 N   0  0  0  0  0  0  0  0  0  0  0  0
    0.0947   -1.6241   -0.9447 C   0  0  2  0  0  0  0  0  0  0  0  0
    0.4663   -0.4157   -0.1627 C   0  0  0  0  0  0  0  0  0  0  0  0
   -0.1644   -0.2269    0.8877 O   0  0  0  0  0  0  0  0  0  0  0  0
    0.6307   -1.6658   -2.3218 C   0  0  0  0  0  0  0  0  0  0  0  0
    0.8415   -3.3054   -3.0638 S   0  0  0  0  0  0  0  0  0  0  0  0
   -1.8729   -1.3226   -0.8861 H   0  0  0  0  0  0  0  0  0  0  0  0
    0.7304   -2.4853   -0.4363 H   0  0  0  0  0  0  0  0  0  0  0  0
    0.0293   -0.9964   -2.9635 H   0  0  0  0  0  0  0  0  0  0  0  0
    1.5998   -1.1217   -2.2530 H   0  0  0  0  0  0  0  0  0  0  0  0
    1.4440    0.5464   -0.4875 N   0  0  0  0  0  0  0  0  0  0  0  0
    1.7517    1.4995    0.6301 C   0  0  2  0  0  0  0  0  0  0  0  0
    0.6498    2.2807    1.0380 C   0  0  0  0  0  0  0  0  0  0  0  0
   -0.0883    2.6863   -0.0107 O   0  0  0  0  0  0  0  0  0  0  0  0
    2.9355    2.3156    0.2076 C   0  0  2  0  0  0  0  0  0  0  0  0
    3.4638    3.3329    1.1512 C   0  0  0  0  0  0  0  0  0  0  0  0
    2.7033    3.0454   -1.1034 C   0  0  0  0  0  0  0  0  0  0  0  0
    3.9958    2.8477    2.4713 C   0  0  0  0  0  0  0  0  0  0  0  0
    1.8790    0.5599   -1.3734 H   0  0  0  0  0  0  0  0  0  0  0  0
    2.0697    0.8105    1.3725 H   0  0  0  0  0  0  0  0  0  0  0  0
    3.8050    1.5974    0.0296 H   0  0  0  0  0  0  0  0  0  0  0  0
    4.3031    3.9163    0.6716 H   0  0  0  0  0  0  0  0  0  0  0  0
    2.7247    4.1299    1.4099 H   0  0  0  0  0  0  0  0  0  0  0  0
    2.8024    4.1472   -1.0134 H   0  0  0  0  0  0  0  0  0  0  0  0
    1.7602    2.7190   -1.5721 H   0  0  0  0  0  0  0  0  0  0  0  0
    3.5045    2.7420   -1.7886 H   0  0  0  0  0  0  0  0  0  0  0  0
    4.9928    3.3259    2.7254 H   0  0  0  0  0  0  0  0  0  0  0  0
    4.0793    1.7509    2.5019 H   0  0  0  0  0  0  0  0  0  0  0  0
    3.3652    3.1358    3.3450 H   0  0  0  0  0  0  0  0  0  0  0  0
    0.0104    2.7976    2.1434 N   0  0  0  0  0  0  0  0  0  0  0  0
   -0.0106    2.8600    3.5315 C   0  0  2  0  0  0  0  0  0  0  0  0
    0.0385    1.4625    4.1870 C   0  0  0  0  0  0  0  0  0  0  0  0
   -0.8153    0.9974    4.8963 O   0  0  0  0  0  0  0  0  0  0  0  0
   -0.8849    3.7933    4.2133 C   0  0  0  0  0  0  0  0  0  0  0  0
   -2.3347    3.8562    4.1842 C   0  0  0  0  0  0  0  0  0  0  0  0
   -3.0139    4.0476    2.8703 C   0  0  0  0  0  0  0  0  0  0  0  0
   -4.4684    4.2354    3.0350 N   0  0  0  0  0  0  0  0  0  0  0  0
   -5.1943    4.4134    1.8219 C   0  0  0  0  0  0  0  0  0  0  0  0
   -6.6049    4.6218    1.8954 N   0  0  0  0  0  0  0  0  0  0  0  0
   -4.6148    4.4043    0.6886 N   0  0  0  0  0  0  0  0  0  0  0  0
   -0.8347    3.5039    1.7666 H   0  0  0  0  0  0  0  0  0  0  0  0
    1.0699    3.1872    3.8942 H   0  0  0  0  0  0  0  0  0  0  0  0
   -0.5117    3.7920    5.2933 H   0  0  0  0  0  0  0  0  0  0  0  0
   -0.5443    4.8898    3.9386 H   0  0  0  0  0  0  0  0  0  0  0  0
   -2.8549    3.0585    4.7938 H   0  0  0  0  0  0  0  0  0  0  0  0
   -2.6425    4.7828    4.7885 H   0  0  0  0  0  0  0  0  0  0  0  0
   -2.9185    3.1494    2.1743 H   0  0  0  0  0  0  0  0  0  0  0  0
   -2.6781    4.9211    2.3042 H   0  0  0  0  0  0  0  0  0  0  0  0
   -4.8803    4.2341    3.9788 H   0  0  0  0  0  0  0  0  0  0  0  0
   -7.1944    4.4680    1.0258 H   0  0  0  0  0  0  0  0  0  0  0  0
   -7.0707    4.9284    2.7814 H   0  0  0  0  0  0  0  0  0  0  0  0
   -3.5741    4.2675    0.5862 H   0  0  0  0  0  0  0  0  0  0  0  0
   -5.1122    4.5203   -0.2274 H   0  0  0  0  0  0  0  0  0  0  0  0
    1.2028    0.6899    3.9366 N   0  0  0  0  0  0  0  0  0  0  0  0
    1.5413   -0.6569    4.2789 C   0  0  2  0  0  0  0  0  0  0  0  0
    2.3119   -0.6938    5.5714 C   0  0  0  0  0  0  0  0  0  0  0  0
    3.1650   -1.6142    5.7859 O   0  0  0  0  0  0  0  0  0  0  0  0
    2.0228   -1.5903    3.2797 C   0  0  0  0  0  0  0  0  0  0  0  0
    3.5129   -1.3601    2.3338 S   0  0  0  0  0  0  0  0  0  0  0  0
    1.9530    1.2331    3.4653 H   0  0  0  0  0  0  0  0  0  0  0  0
    0.5396   -1.0923    4.6266 H   0  0  0  0  0  0  0  0  0  0  0  0
    1.1775   -1.8482    2.5840 H   0  0  0  0  0  0  0  0  0  0  0  0
    2.1585   -2.5818    3.8335 H   0  0  0  0  0  0  0  0  0  0  0  0
    2.0815    0.3250    6.5864 N   0  0  0  0  0  0  0  0  0  0  0  0
    2.9736    0.1275    7.7521 C   0  0  2  0  0  0  0  0  0  0  0  0
    2.4498   -1.2590    8.2257 C   0  0  0  0  0  0  0  0  0  0  0  0
    1.2679   -1.5785    7.9317 O   0  0  0  0  0  0  0  0  0  0  0  0
    2.6155    1.0365    8.8676 C   0  0  0  0  0  0  0  0  0  0  0  0
    2.6353    2.4765    8.5743 C   0  0  0  0  0  0  0  0  0  0  0  0
    3.7191    3.2986    8.6561 C   0  0  0  0  0  0  0  0  0  0  0  0
    1.4341    3.0544    8.1797 C   0  0  0  0  0  0  0  0  0  0  0  0
    3.6395    4.6659    8.3546 C   0  0  0  0  0  0  0  0  0  0  0  0
    1.3547    4.4204    7.8804 C   0  0  0  0  0  0  0  0  0  0  0  0
    2.4359    5.2548    7.9554 C   0  0  0  0  0  0  0  0  0  0  0  0
    2.3961    6.6113    7.6614 O   0  0  0  0  0  0  0  0  0  0  0  0
    1.3916    1.0637    6.5028 H   0  0  0  0  0  0  0  0  0  0  0  0
    3.9875   -0.0229    7.4372 H   0  0  0  0  0  0  0  0  0  0  0  0
    3.3242    0.8610    9.7167 H   0  0  0  0  0  0  0  0  0  0  0  0
    1.6199    0.7995    9.3068 H   0  0  0  0  0  0  0  0  0  0  0  0
    4.6674    2.8949    8.9622 H   0  0  0  0  0  0  0  0  0  0  0  0
    0.5058    2.5225    8.0942 H   0  0  0  0  0  0  0  0  0  0  0  0
    4.5424    5.2698    8.4310 H   0  0  0  0  0  0  0  0  0  0  0  0
    0.3988    4.8571    7.5747 H   0  0  0  0  0  0  0  0  0  0  0  0
    3.0677    7.0095    7.0498 H   0  0  0  0  0  0  0  0  0  0  0  0
    3.3530   -2.0669    8.9473 N   0  0  0  0  0  0  0  0  0  0  0  0
    2.9619   -3.4005    9.4317 C   0  0  2  0  0  0  0  0  0  0  0  0
    3.9581   -3.9692   10.3249 C   0  0  0  0  0  0  0  0  0  0  0  0
    3.8259   -5.0501   10.9573 O   0  0  0  0  0  0  0  0  0  0  0  0
    2.9459   -4.3419    8.1940 C   0  0  0  0  0  0  0  0  0  0  0  0
    4.3143   -1.7158    9.1371 H   0  0  0  0  0  0  0  0  0  0  0  0
    1.9507   -3.4311    9.8091 H   0  0  0  0  0  0  0  0  0  0  0  0
    3.7251   -4.0324    7.4661 H   0  0  0  0  0  0  0  0  0  0  0  0
    3.1509   -5.3574    8.5649 H   0  0  0  0  0  0  0  0  0  0  0  0
    1.9241   -4.3377    7.7529 H   0  0  0  0  0  0  0  0  0  0  0  0
    5.2019   -3.2507   10.4985 N   0  0  0  0  0  0  0  0  0  0  0  0
    6.0267   -3.7594   10.0646 H   0  0  0  0  0  0  0  0  0  0  0  0
    5.2793   -2.3470   10.9844 H   0  0  0  0  0  0  0  0  0  0  0  0
    4.9276   -4.7512   -0.8495 H   0  0  0  0  0  0  0  0  0  0  0  0
    2.8586   -2.6252   -1.6168 H   0  0  0  0  0  0  0  0  0  0  0  0
    4.0175   -3.5230   -3.8367 H   0  0  0  0  0  0  0  0  0  0  0  0
    6.1273   -2.5962   -2.2377 H   0  0  0  0  0  0  0  0  0  0  0  0
    3.8390   -1.0174   -0.9822 H   0  0  0  0  0  0  0  0  0  0  0  0
    5.5273   -3.1103    0.4831 H   0  0  0  0  0  0  0  0  0  0  0  0
    5.2710   -1.9965   -4.3942 H   0  0  0  0  0  0  0  0  0  0  0  0
    5.7441    0.3161   -2.9181 H   0  0  0  0  0  0  0  0  0  0  0  0
   -1.3858    2.5768   -6.1753 H   0  0  0  0  0  0  0  0  0  0  0  0
   -0.9978    2.1547   -8.3446 H   0  0  0  0  0  0  0  0  0  0  0  0
   -2.0448   -1.0109   -4.2517 H   0  0  0  0  0  0  0  0  0  0  0  0
   -3.0204   -2.6731   -5.8744 H   0  0  0  0  0  0  0  0  0  0  0  0
   -1.7078   -3.7183   -1.8210 H   0  0  0  0  0  0  0  0  0  0  0  0
   -0.5593   -4.8643   -0.2291 H   0  0  0  0  0  0  0  0  0  0  0  0
  1  2  1  0
  1 11  1  1
  1 12  1  0
  1 13  1  0
  2  3  1  0
  2  7  1  0
  3  4  1  0
  3 10  1  0
  4  5  1  0
  4 14  1  0
  5  6  1  0
  5  9  1  0
  6  7  1  0
  6 15  1  0
  7  8  1  0
  8 16  1  1
  8 17  1  0
  8171  1  0
  9 19  1  0
  9 21  1  0
 10 18  1  6
 10 20  1  0
 10118  1  0
 23 38  1  0
 38 39  1  0
 38 46  1  0
 39 40  1  0
 39 44  1  0
 39 47  1  1
 40 41  1  0
 40 48  1  6
 40 49  1  0
 41 42  1  0
 41 50  1  6
 41 51  1  0
 42 43  1  0
 42 52  1  1
 42 53  1  0
 43 54  1  6
 43 55  1  0
 44 45  1  0
 44 57  1  0
 57 58  1  0
 57 65  1  0
 58 59  1  0
 58 61  1  0
 58 66  1  1
 59 60  1  0
 59 76  1  0
 61 62  1  0
 61 67  1  6
 61 68  1  0
 62 63  1  0
 62 69  1  6
 62 70  1  0
 63 64  1  0
 63 71  1  1
 63 72  1  0
 64 73  1  6
 64 74  1  0
 64 75  1  0
 78 97  1  0
 97 98  1  0
 97104  1  0
 98 99  1  0
 98101  1  0
 98105  1  1
 99100  1  0
 99113  1  0
101102  1  0
101106  1  6
101107  1  0
102103  1  0
102108  1  6
102109  1  0
103110  1  6
103111  1  0
199207  1  0
207208  1  0
207209  1  0
 22 21  1  0
 23 22  1  0
 24 23  2  0
 25 22  1  0
 26 25  1  0
 27 26  1  0
 28 26  2  0
 29 27  2  0
 30 28  1  0
 30 29  1  0
 31 21  1  0
 22 32  1  6
 33 25  1  0
 34 25  1  0
 35 28  1  0
 36 29  1  0
 37 30  1  0
 56 43  1  0
 77 76  1  0
 78 77  1  0
 79 78  2  0
 80 77  1  0
 81 80  1  0
 82 81  2  0
 83 81  1  0
 84 82  1  0
 85 83  2  0
 86 85  1  0
 86 84  2  0
 87 86  1  0
 88 76  1  0
 77 89  1  1
 90 80  1  0
 91 80  1  0
 92 82  1  0
 93 83  1  0
 94 84  1  0
 95 85  1  0
 96 87  1  0
112103  1  0
114113  1  0
115114  1  0
116115  2  0
117114  1  0
118117  1  0
119113  1  0
114120  1  1
121117  1  0
122117  1  0
123115  1  0
124123  1  0
125124  1  0
126125  2  0
127124  1  0
128127  1  0
129127  1  0
130128  1  0
131123  1  0
124132  1  1
127133  1  6
134128  1  0
135128  1  0
136129  1  0
137129  1  0
138129  1  0
139130  1  0
140130  1  0
141130  1  0
142125  1  0
143142  1  0
144143  1  0
145144  2  0
146143  1  0
147146  1  0
148147  1  0
149148  1  0
150149  1  0
151150  1  0
152150  2  0
153142  1  0
143154  1  1
155146  1  0
156146  1  0
157147  1  0
158147  1  0
159148  1  0
160148  1  0
161149  1  0
162151  1  0
163151  1  0
164152  1  0
165152  1  0
166144  1  0
167166  1  0
168167  1  0
169168  2  0
170167  1  0
171170  1  0
172166  1  0
167173  1  1
174170  1  0
175170  1  0
176168  1  0
177176  1  0
178177  1  0
179178  2  0
180177  1  0
181180  1  0
182181  2  0
183181  1  0
184182  1  0
185183  2  0
186185  1  0
186184  2  0
187186  1  0
188176  1  0
177189  1  6
190180  1  0
191180  1  0
192182  1  0
193183  1  0
194184  1  0
195185  1  0
196187  1  0
197178  1  0
198197  1  0
199198  1  0
200199  2  0
201198  1  0
202197  1  0
198203  1  1
204201  1  0
205201  1  0
206201  1  0
  2210  1  6
  3211  1  1
  4212  1  0
  5213  1  0
  6214  1  0
  7215  1  0
  9216  1  0
 19217  1  0
 44218  1  0
 45219  1  0
 59220  1  0
 60221  1  0
 99222  1  0
100223  1  0
M  CHG  3  43   1 103   1 152   1
M  END
$$$$
BP70
     RDKit          3D

223228  0  0  0  0  0  0  0  0999 V2000
   -2.6817    2.6803   -1.7271 C   0  0  2  0  0  0  0  0  0  0  0  0
   -1.1599    2.6317   -1.7073 C   0  0  1  0  0  0  0  0  0  0  0  0
   -0.7499    2.1471   -0.3159 C   0  0  1  0  0  0  0  0  0  0  0  0
    0.3967    1.2120   -0.2608 C   0  0  0  0  0  0  0  0  0  0  0  0
    0.6851    0.4482   -1.4820 C   0  0  0  0  0  0  0  0  0  0  0  0
   -0.5467    0.4033   -2.3496 C   0  0  0  0  0  0  0  0  0  0  0  0
   -0.6751    1.8440   -2.8525 C   0  0  0  0  0  0  0  0  0  0  0  0
    0.5901    2.3790   -3.4732 C   0  0  2  0  0  0  0  0  0  0  0  0
    1.2304   -0.9925   -1.2617 C   0  0  0  0  0  0  0  0  0  0  0  0
   -0.5245    3.4051    0.4372 C   0  0  1  0  0  0  0  0  0  0  0  0
   -3.0577    3.7228   -1.7467 H   0  0  0  0  0  0  0  0  0  0  0  0
   -3.1135    2.2049   -0.8218 H   0  0  0  0  0  0  0  0  0  0  0  0
   -3.0264    2.0819   -2.5866 H   0  0  0  0  0  0  0  0  0  0  0  0
    1.3046    1.7127    0.1371 H   0  0  0  0  0  0  0  0  0  0  0  0
   -1.4914    0.2429   -1.7515 H   0  0  0  0  0  0  0  0  0  0  0  0
    0.2132    3.1577   -4.2161 H   0  0  0  0  0  0  0  0  0  0  0  0
    1.0955    1.6562   -4.1465 H   0  0  0  0  0  0  0  0  0  0  0  0
    0.0234    4.1664   -0.2348 H   0  0  0  0  0  0  0  0  0  0  0  0
    0.8149   -1.3086   -0.0121 O   0  0  0  0  0  0  0  0  0  0  0  0
   -1.5528    3.9782    0.4526 H   0  0  0  0  0  0  0  0  0  0  0  0
    1.0018   -1.7035   -2.3875 N   0  0  0  0  0  0  0  0  0  0  0  0
    1.1508   -2.9239   -2.9621 C   0  0  2  0  0  0  0  0  0  0  0  0
    0.5195   -4.1646   -2.4993 C   0  0  0  0  0  0  0  0  0  0  0  0
    0.5763   -5.1594   -3.2546 O   0  0  0  0  0  0  0  0  0  0  0  0
    2.4576   -3.1498   -3.7063 C   0  0  0  0  0  0  0  0  0  0  0  0
    3.6930   -3.0013   -2.9536 C   0  0  0  0  0  0  0  0  0  0  0  0
    4.3532   -1.7835   -2.8711 N   0  0  0  0  0  0  0  0  0  0  0  0
    4.4726   -3.8606   -2.2224 C   0  0  0  0  0  0  0  0  0  0  0  0
    5.4527   -1.9275   -2.1382 C   0  0  0  0  0  0  0  0  0  0  0  0
    5.5431   -3.2198   -1.7226 N   0  0  0  0  0  0  0  0  0  0  0  0
    1.2704   -1.0045   -3.2096 H   0  0  0  0  0  0  0  0  0  0  0  0
    0.4619   -2.7703   -3.9486 H   0  0  0  0  0  0  0  0  0  0  0  0
    2.4619   -4.1324   -4.2094 H   0  0  0  0  0  0  0  0  0  0  0  0
    2.4087   -2.4232   -4.5790 H   0  0  0  0  0  0  0  0  0  0  0  0
    4.2592   -4.9107   -2.0736 H   0  0  0  0  0  0  0  0  0  0  0  0
    6.1373   -1.0966   -1.9519 H   0  0  0  0  0  0  0  0  0  0  0  0
    6.3251   -3.5579   -1.1326 H   0  0  0  0  0  0  0  0  0  0  0  0
   -0.1552   -4.3967   -1.2866 N   0  0  0  0  0  0  0  0  0  0  0  0
   -0.8830   -5.5042   -0.8115 C   0  0  1  0  0  0  0  0  0  0  0  0
   -0.2778   -6.7150   -0.2283 C   0  0  2  0  0  0  0  0  0  0  0  0
    0.5777   -7.5453   -1.1309 C   0  0  2  0  0  0  0  0  0  0  0  0
    1.0620   -8.8052   -0.4399 C   0  0  1  0  0  0  0  0  0  0  0  0
   -0.0936   -9.6047    0.0301 N   0  0  2  0  0  0  0  0  0  0  0  0
   -2.2089   -5.2315   -0.1613 C   0  0  0  0  0  0  0  0  0  0  0  0
   -1.9770   -4.3592    0.8894 O   0  0  0  0  0  0  0  0  0  0  0  0
   -0.0829   -3.5645   -0.6274 H   0  0  0  0  0  0  0  0  0  0  0  0
   -1.2456   -5.9677   -1.8628 H   0  0  0  0  0  0  0  0  0  0  0  0
   -1.1495   -7.3617    0.0747 H   0  0  0  0  0  0  0  0  0  0  0  0
    0.2413   -6.5172    0.7521 H   0  0  0  0  0  0  0  0  0  0  0  0
    1.4671   -7.0555   -1.5470 H   0  0  0  0  0  0  0  0  0  0  0  0
   -0.0292   -7.8959   -2.0253 H   0  0  0  0  0  0  0  0  0  0  0  0
    1.5850   -9.4578   -1.1656 H   0  0  0  0  0  0  0  0  0  0  0  0
    1.7354   -8.5699    0.3746 H   0  0  0  0  0  0  0  0  0  0  0  0
    0.0727  -10.6416   -0.1722 H   0  0  0  0  0  0  0  0  0  0  0  0
   -0.9849   -9.2990   -0.4590 H   0  0  0  0  0  0  0  0  0  0  0  0
   -0.1772   -9.4522    1.0980 H   0  0  0  0  0  0  0  0  0  0  0  0
   -3.2977   -4.9013   -0.9246 N   0  0  0  0  0  0  0  0  0  0  0  0
   -3.5066   -3.7518   -1.6656 C   0  0  2  0  0  0  0  0  0  0  0  0
   -3.7486   -2.5870   -0.6572 C   0  0  0  0  0  0  0  0  0  0  0  0
   -4.0307   -1.4826   -1.3904 O   0  0  0  0  0  0  0  0  0  0  0  0
   -4.6485   -3.7403   -2.6121 C   0  0  2  0  0  0  0  0  0  0  0  0
   -4.6356   -4.7501   -3.7021 C   0  0  1  0  0  0  0  0  0  0  0  0
   -3.4377   -4.6390   -4.6340 C   0  0  1  0  0  0  0  0  0  0  0  0
   -3.4831   -5.6970   -5.7199 C   0  0  2  0  0  0  0  0  0  0  0  0
   -4.0970   -5.6004   -0.9302 H   0  0  0  0  0  0  0  0  0  0  0  0
   -2.5922   -3.4900   -2.2295 H   0  0  0  0  0  0  0  0  0  0  0  0
   -4.6599   -2.7311   -3.1278 H   0  0  0  0  0  0  0  0  0  0  0  0
   -5.6346   -3.8841   -2.0820 H   0  0  0  0  0  0  0  0  0  0  0  0
   -4.7521   -5.8131   -3.3548 H   0  0  0  0  0  0  0  0  0  0  0  0
   -5.5377   -4.5580   -4.3332 H   0  0  0  0  0  0  0  0  0  0  0  0
   -3.4053   -3.6680   -5.1409 H   0  0  0  0  0  0  0  0  0  0  0  0
   -2.5329   -4.8710   -4.0157 H   0  0  0  0  0  0  0  0  0  0  0  0
   -2.8608   -6.5863   -5.5062 H   0  0  0  0  0  0  0  0  0  0  0  0
   -3.0746   -5.2582   -6.6749 H   0  0  0  0  0  0  0  0  0  0  0  0
   -4.5525   -5.9411   -5.8614 H   0  0  0  0  0  0  0  0  0  0  0  0
   -4.5972   -2.9918    0.3811 N   0  0  0  0  0  0  0  0  0  0  0  0
   -5.1193   -1.9761    1.2317 C   0  0  2  0  0  0  0  0  0  0  0  0
   -4.1642   -1.0375    1.8123 C   0  0  0  0  0  0  0  0  0  0  0  0
   -2.9474   -0.9517    1.5657 O   0  0  0  0  0  0  0  0  0  0  0  0
   -6.1472   -2.5270    2.1880 C   0  0  0  0  0  0  0  0  0  0  0  0
   -7.2993   -3.1475    1.4342 C   0  0  0  0  0  0  0  0  0  0  0  0
   -7.3388   -4.5040    1.1760 C   0  0  0  0  0  0  0  0  0  0  0  0
   -8.3242   -2.2907    0.9997 C   0  0  0  0  0  0  0  0  0  0  0  0
   -8.4215   -5.0160    0.4661 C   0  0  0  0  0  0  0  0  0  0  0  0
   -9.3888   -2.8274    0.2931 C   0  0  0  0  0  0  0  0  0  0  0  0
   -9.4182   -4.1839    0.0392 C   0  0  0  0  0  0  0  0  0  0  0  0
  -10.4845   -4.7188   -0.6619 O   0  0  0  0  0  0  0  0  0  0  0  0
   -5.3948   -3.6018    0.0962 H   0  0  0  0  0  0  0  0  0  0  0  0
   -5.7521   -1.3147    0.5295 H   0  0  0  0  0  0  0  0  0  0  0  0
   -6.4862   -1.8699    2.9708 H   0  0  0  0  0  0  0  0  0  0  0  0
   -5.6507   -3.4199    2.6860 H   0  0  0  0  0  0  0  0  0  0  0  0
   -6.5286   -5.1430    1.5331 H   0  0  0  0  0  0  0  0  0  0  0  0
   -8.2165   -1.2543    1.2353 H   0  0  0  0  0  0  0  0  0  0  0  0
   -8.4522   -6.0851    0.2646 H   0  0  0  0  0  0  0  0  0  0  0  0
  -10.1476   -2.1520   -0.0223 H   0  0  0  0  0  0  0  0  0  0  0  0
  -11.0022   -4.2417   -1.3918 H   0  0  0  0  0  0  0  0  0  0  0  0
   -4.6020   -0.0748    2.7989 N   0  0  0  0  0  0  0  0  0  0  0  0
   -3.6361    0.9345    3.3195 C   0  0  2  0  0  0  0  0  0  0  0  0
   -2.7516    0.3021    4.3486 C   0  0  0  0  0  0  0  0  0  0  0  0
   -3.4187   -0.1463    5.4747 O   0  0  0  0  0  0  0  0  0  0  0  0
   -4.4592    2.0898    3.7708 C   0  0  2  0  0  0  0  0  0  0  0  0
   -5.4646    1.7483    4.8581 C   0  0  1  0  0  0  0  0  0  0  0  0
   -6.2158    3.0077    5.1633 N   0  0  2  0  0  0  0  0  0  0  0  0
   -5.5621   -0.1364    3.0794 H   0  0  0  0  0  0  0  0  0  0  0  0
   -2.9344    1.2183    2.5237 H   0  0  0  0  0  0  0  0  0  0  0  0
   -5.0989    2.3787    2.8875 H   0  0  0  0  0  0  0  0  0  0  0  0
   -3.9127    2.9517    4.1683 H   0  0  0  0  0  0  0  0  0  0  0  0
   -6.1502    0.9478    4.6357 H   0  0  0  0  0  0  0  0  0  0  0  0
   -4.9619    1.5510    5.8479 H   0  0  0  0  0  0  0  0  0  0  0  0
   -7.1118    2.7463    5.6619 H   0  0  0  0  0  0  0  0  0  0  0  0
   -6.4526    3.4748    4.2343 H   0  0  0  0  0  0  0  0  0  0  0  0
   -5.5964    3.6272    5.7635 H   0  0  0  0  0  0  0  0  0  0  0  0
   -1.6168    1.0579    4.6902 N   0  0  0  0  0  0  0  0  0  0  0  0
   -0.6570    1.3309    3.6332 C   0  0  2  0  0  0  0  0  0  0  0  0
    0.7479    1.2765    4.2400 C   0  0  0  0  0  0  0  0  0  0  0  0
    0.9120    1.3370    5.4406 O   0  0  0  0  0  0  0  0  0  0  0  0
   -0.7775    2.8439    3.3541 C   0  0  0  0  0  0  0  0  0  0  0  0
    0.2042    3.4645    2.0206 S   0  0  0  0  0  0  0  0  0  0  0  0
   -1.0859    0.5652    5.4793 H   0  0  0  0  0  0  0  0  0  0  0  0
   -0.7294    0.7331    2.7904 H   0  0  0  0  0  0  0  0  0  0  0  0
   -1.8336    3.1596    3.2947 H   0  0  0  0  0  0  0  0  0  0  0  0
   -0.4080    3.3561    4.2981 H   0  0  0  0  0  0  0  0  0  0  0  0
    1.9062    1.1435    3.4242 N   0  0  0  0  0  0  0  0  0  0  0  0
    3.1834    1.2623    4.0965 C   0  0  2  0  0  0  0  0  0  0  0  0
    4.3209    1.6307    3.2712 C   0  0  0  0  0  0  0  0  0  0  0  0
    5.4231    1.9587    3.7514 O   0  0  0  0  0  0  0  0  0  0  0  0
    3.4403    0.0636    4.9999 C   0  0  2  0  0  0  0  0  0  0  0  0
    4.7837    0.1962    5.6973 C   0  0  0  0  0  0  0  0  0  0  0  0
    3.4764   -1.2274    4.2157 C   0  0  0  0  0  0  0  0  0  0  0  0
    5.0579   -0.9574    6.6416 C   0  0  0  0  0  0  0  0  0  0  0  0
    1.7399    0.9681    2.4455 H   0  0  0  0  0  0  0  0  0  0  0  0
    3.0184    2.0870    4.8588 H   0  0  0  0  0  0  0  0  0  0  0  0
    2.7110   -0.0529    5.8106 H   0  0  0  0  0  0  0  0  0  0  0  0
    4.9481    1.1520    6.1898 H   0  0  0  0  0  0  0  0  0  0  0  0
    5.6042    0.0887    4.9156 H   0  0  0  0  0  0  0  0  0  0  0  0
    2.9887   -1.1969    3.2424 H   0  0  0  0  0  0  0  0  0  0  0  0
    4.5096   -1.5795    4.0486 H   0  0  0  0  0  0  0  0  0  0  0  0
    2.9450   -2.0351    4.7917 H   0  0  0  0  0  0  0  0  0  0  0  0
    5.3940   -0.5195    7.6056 H   0  0  0  0  0  0  0  0  0  0  0  0
    4.1237   -1.5228    6.8890 H   0  0  0  0  0  0  0  0  0  0  0  0
    5.8888   -1.6169    6.3234 H   0  0  0  0  0  0  0  0  0  0  0  0
    4.3130    1.6536    1.8098 N   0  0  0  0  0  0  0  0  0  0  0  0
    5.5318    1.9772    1.0705 C   0  0  2  0  0  0  0  0  0  0  0  0
    5.3528    2.8558   -0.0665 C   0  0  0  0  0  0  0  0  0  0  0  0
    6.3304    3.1991   -0.7608 O   0  0  0  0  0  0  0  0  0  0  0  0
    6.2698    0.6946    0.6951 C   0  0  0  0  0  0  0  0  0  0  0  0
    6.6404   -0.1088    1.8958 C   0  0  0  0  0  0  0  0  0  0  0  0
    7.3232   -1.4326    1.5883 C   0  0  0  0  0  0  0  0  0  0  0  0
    7.5913   -2.0876    2.8763 N   0  0  0  0  0  0  0  0  0  0  0  0
    8.1992   -3.3681    2.9576 C   0  0  0  0  0  0  0  0  0  0  0  0
    8.4356   -3.9765    4.2131 N   0  0  0  0  0  0  0  0  0  0  0  0
    8.5162   -3.9471    1.8613 N   0  0  0  0  0  0  0  0  0  0  0  0
    3.4108    1.4285    1.4099 H   0  0  0  0  0  0  0  0  0  0  0  0
    6.2136    2.4848    1.8182 H   0  0  0  0  0  0  0  0  0  0  0  0
    7.1863    0.9660    0.1488 H   0  0  0  0  0  0  0  0  0  0  0  0
    5.6570    0.0410    0.0456 H   0  0  0  0  0  0  0  0  0  0  0  0
    7.3633    0.4231    2.5640 H   0  0  0  0  0  0  0  0  0  0  0  0
    5.7106   -0.3989    2.3934 H   0  0  0  0  0  0  0  0  0  0  0  0
    8.2054   -1.3620    0.9638 H   0  0  0  0  0  0  0  0  0  0  0  0
    6.5517   -2.1041    1.1113 H   0  0  0  0  0  0  0  0  0  0  0  0
    7.3376   -1.6252    3.7954 H   0  0  0  0  0  0  0  0  0  0  0  0
    7.9068   -3.5913    5.0369 H   0  0  0  0  0  0  0  0  0  0  0  0
    9.1015   -4.7851    4.3459 H   0  0  0  0  0  0  0  0  0  0  0  0
    8.9735   -4.9122    1.8399 H   0  0  0  0  0  0  0  0  0  0  0  0
    8.3492   -3.5091    0.9220 H   0  0  0  0  0  0  0  0  0  0  0  0
    4.1017    3.4153   -0.5208 N   0  0  0  0  0  0  0  0  0  0  0  0
    4.0213    4.3016   -1.6599 C   0  0  2  0  0  0  0  0  0  0  0  0
    3.3896    5.5921   -1.3700 C   0  0  0  0  0  0  0  0  0  0  0  0
    2.9578    5.7545   -0.1732 O   0  0  0  0  0  0  0  0  0  0  0  0
    3.2700    3.6788   -2.8393 C   0  0  0  0  0  0  0  0  0  0  0  0
    1.6319    3.2398   -2.3414 S   0  0  0  0  0  0  0  0  0  0  0  0
    3.3028    3.1190    0.0547 H   0  0  0  0  0  0  0  0  0  0  0  0
    5.0472    4.4655   -2.0201 H   0  0  0  0  0  0  0  0  0  0  0  0
    3.8484    2.7750   -3.1372 H   0  0  0  0  0  0  0  0  0  0  0  0
    3.2259    4.3480   -3.6965 H   0  0  0  0  0  0  0  0  0  0  0  0
    3.2351    6.6396   -2.3128 N   0  0  0  0  0  0  0  0  0  0  0  0
    2.5901    7.8553   -1.8643 C   0  0  2  0  0  0  0  0  0  0  0  0
    1.3747    8.2124   -2.6267 C   0  0  0  0  0  0  0  0  0  0  0  0
    0.7403    9.2308   -2.2780 O   0  0  0  0  0  0  0  0  0  0  0  0
    3.5471    9.0249   -1.7579 C   0  0  0  0  0  0  0  0  0  0  0  0
    4.2297    9.3885   -3.0030 C   0  0  0  0  0  0  0  0  0  0  0  0
    5.5249    8.9439   -3.3123 C   0  0  0  0  0  0  0  0  0  0  0  0
    3.6363   10.2030   -3.9711 C   0  0  0  0  0  0  0  0  0  0  0  0
    6.1620    9.2766   -4.4643 C   0  0  0  0  0  0  0  0  0  0  0  0
    4.2870   10.5423   -5.1492 C   0  0  0  0  0  0  0  0  0  0  0  0
    5.5603   10.0876   -5.4206 C   0  0  0  0  0  0  0  0  0  0  0  0
    6.2045   10.4270   -6.5970 O   0  0  0  0  0  0  0  0  0  0  0  0
    3.5843    6.4996   -3.2722 H   0  0  0  0  0  0  0  0  0  0  0  0
    2.2395    7.7145   -0.8040 H   0  0  0  0  0  0  0  0  0  0  0  0
    2.9697    9.8969   -1.3513 H   0  0  0  0  0  0  0  0  0  0  0  0
    4.2528    8.7727   -0.9256 H   0  0  0  0  0  0  0  0  0  0  0  0
    6.0240    8.3070   -2.5766 H   0  0  0  0  0  0  0  0  0  0  0  0
    2.6466   10.5855   -3.7954 H   0  0  0  0  0  0  0  0  0  0  0  0
    7.1820    8.9217   -4.6878 H   0  0  0  0  0  0  0  0  0  0  0  0
    3.7475   11.1915   -5.8655 H   0  0  0  0  0  0  0  0  0  0  0  0
    7.0601   10.9811   -6.4940 H   0  0  0  0  0  0  0  0  0  0  0  0
    0.9100    7.4299   -3.7424 N   0  0  0  0  0  0  0  0  0  0  0  0
   -0.2761    7.8518   -4.4115 C   0  0  2  0  0  0  0  0  0  0  0  0
   -1.3296    6.7809   -4.4029 C   0  0  0  0  0  0  0  0  0  0  0  0
   -1.0842    5.6769   -3.8076 O   0  0  0  0  0  0  0  0  0  0  0  0
   -0.0549    8.2761   -5.8419 C   0  0  0  0  0  0  0  0  0  0  0  0
    1.4663    6.5861   -4.0044 H   0  0  0  0  0  0  0  0  0  0  0  0
   -0.6507    8.7772   -3.8908 H   0  0  0  0  0  0  0  0  0  0  0  0
   -0.1108    7.4067   -6.5627 H   0  0  0  0  0  0  0  0  0  0  0  0
   -0.8366    9.0280   -6.0951 H   0  0  0  0  0  0  0  0  0  0  0  0
    0.9372    8.7624   -5.9109 H   0  0  0  0  0  0  0  0  0  0  0  0
   -2.5983    6.9746   -5.0501 N   0  0  0  0  0  0  0  0  0  0  0  0
   -3.1948    7.7931   -4.8180 H   0  0  0  0  0  0  0  0  0  0  0  0
   -2.9630    6.2834   -5.7824 H   0  0  0  0  0  0  0  0  0  0  0  0
   -0.8219    3.7076   -1.8241 H   0  0  0  0  0  0  0  0  0  0  0  0
   -1.6761    1.6809    0.1475 H   0  0  0  0  0  0  0  0  0  0  0  0
    0.1527    0.4607    0.5656 H   0  0  0  0  0  0  0  0  0  0  0  0
    1.4605    0.9196   -2.0834 H   0  0  0  0  0  0  0  0  0  0  0  0
   -0.5602   -0.2620   -3.1834 H   0  0  0  0  0  0  0  0  0  0  0  0
   -1.4773    1.7693   -3.6375 H   0  0  0  0  0  0  0  0  0  0  0  0
    2.3639   -0.8554   -1.1488 H   0  0  0  0  0  0  0  0  0  0  0  0
    1.4966   -1.9065    0.4302 H   0  0  0  0  0  0  0  0  0  0  0  0
   -2.4542   -6.2100    0.3821 H   0  0  0  0  0  0  0  0  0  0  0  0
   -1.0490   -4.5384    1.2273 H   0  0  0  0  0  0  0  0  0  0  0  0
   -2.7310   -2.4241   -0.1575 H   0  0  0  0  0  0  0  0  0  0  0  0
   -3.5760   -0.6864   -1.0779 H   0  0  0  0  0  0  0  0  0  0  0  0
   -2.4279   -0.6907    3.8382 H   0  0  0  0  0  0  0  0  0  0  0  0
   -2.7860   -0.4979    6.1676 H   0  0  0  0  0  0  0  0  0  0  0  0
  1  2  1  0
  1 11  1  6
  1 12  1  0
  1 13  1  0
  2  3  1  0
  2  7  1  0
  3  4  1  0
  3 10  1  0
  4  5  1  0
  4 14  1  0
  5  6  1  0
  5  9  1  0
  6  7  1  0
  6 15  1  0
  7  8  1  0
  8 16  1  6
  8 17  1  0
  8171  1  0
  9 19  1  0
  9 21  1  0
 10 18  1  6
 10 20  1  0
 10118  1  0
 23 38  1  0
 38 39  1  0
 38 46  1  0
 39 40  1  0
 39 44  1  0
 39 47  1  6
 40 41  1  0
 40 48  1  1
 40 49  1  0
 41 42  1  0
 41 50  1  6
 41 51  1  0
 42 43  1  0
 42 52  1  6
 42 53  1  0
 43 54  1  1
 43 55  1  0
 44 45  1  0
 44 57  1  0
 57 58  1  0
 57 65  1  0
 58 59  1  0
 58 61  1  0
 58 66  1  6
 59 60  1  0
 59 76  1  0
 61 62  1  0
 61 67  1  6
 61 68  1  0
 62 63  1  0
 62 69  1  1
 62 70  1  0
 63 64  1  0
 63 71  1  6
 63 72  1  0
 64 73  1  1
 64 74  1  0
 64 75  1  0
 78 97  1  0
 97 98  1  0
 97104  1  0
 98 99  1  0
 98101  1  0
 98105  1  6
 99100  1  0
 99113  1  0
101102  1  0
101106  1  6
101107  1  0
102103  1  0
102108  1  6
102109  1  0
103110  1  1
103111  1  0
199207  1  0
207208  1  0
207209  1  0
 22 21  1  0
 23 22  1  0
 24 23  2  0
 25 22  1  0
 26 25  1  0
 27 26  1  0
 28 26  2  0
 29 27  2  0
 30 28  1  0
 30 29  1  0
 31 21  1  0
 22 32  1  6
 33 25  1  0
 34 25  1  0
 35 28  1  0
 36 29  1  0
 37 30  1  0
 56 43  1  0
 77 76  1  0
 78 77  1  0
 79 78  2  0
 80 77  1  0
 81 80  1  0
 82 81  2  0
 83 81  1  0
 84 82  1  0
 85 83  2  0
 86 85  1  0
 86 84  2  0
 87 86  1  0
 88 76  1  0
 77 89  1  6
 90 80  1  0
 91 80  1  0
 92 82  1  0
 93 83  1  0
 94 84  1  0
 95 85  1  0
 96 87  1  0
112103  1  0
114113  1  0
115114  1  0
116115  2  0
117114  1  0
118117  1  0
119113  1  0
114120  1  6
121117  1  0
122117  1  0
123115  1  0
124123  1  0
125124  1  0
126125  2  0
127124  1  0
128127  1  0
129127  1  0
130128  1  0
131123  1  0
124132  1  1
127133  1  1
134128  1  0
135128  1  0
136129  1  0
137129  1  0
138129  1  0
139130  1  0
140130  1  0
141130  1  0
142125  1  0
143142  1  0
144143  1  0
145144  2  0
146143  1  0
147146  1  0
148147  1  0
149148  1  0
150149  1  0
151150  1  0
152150  2  0
153142  1  0
143154  1  1
155146  1  0
156146  1  0
157147  1  0
158147  1  0
159148  1  0
160148  1  0
161149  1  0
162151  1  0
163151  1  0
164152  1  0
165152  1  0
166144  1  0
167166  1  0
168167  1  0
169168  2  0
170167  1  0
171170  1  0
172166  1  0
167173  1  6
174170  1  0
175170  1  0
176168  1  0
177176  1  0
178177  1  0
179178  2  0
180177  1  0
181180  1  0
182181  2  0
183181  1  0
184182  1  0
185183  2  0
186185  1  0
186184  2  0
187186  1  0
188176  1  0
177189  1  1
190180  1  0
191180  1  0
192182  1  0
193183  1  0
194184  1  0
195185  1  0
196187  1  0
197178  1  0
198197  1  0
199198  1  0
200199  2  0
201198  1  0
202197  1  0
198203  1  1
204201  1  0
205201  1  0
206201  1  0
  2210  1  6
  3211  1  1
  4212  1  0
  5213  1  0
  6214  1  0
  7215  1  0
  9216  1  0
 19217  1  0
 44218  1  0
 45219  1  0
 59220  1  0
 60221  1  0
 99222  1  0
100223  1  0
M  CHG  3  43   1 103   1 152   1
M  END
$$$$
BP70
     RDKit          3D

223228  0  0  0  0  0  0  0  0999 V2000
   -4.0668    1.2499    1.4265 C   0  0  2  0  0  0  0  0  0  0  0  0
   -3.2850    0.0262    1.8166 C   0  0  1  0  0  0  0  0  0  0  0  0
   -1.9005    0.0554    1.1871 C   0  0  1  0  0  0  0  0  0  0  0  0
   -0.8151    0.3538    2.1443 C   0  0  0  0  0  0  0  0  0  0  0  0
   -1.1546    1.4229    3.1127 C   0  0  0  0  0  0  0  0  0  0  0  0
   -2.4404    1.2353    3.8031 C   0  0  0  0  0  0  0  0  0  0  0  0
   -3.1501   -0.0337    3.3026 C   0  0  0  0  0  0  0  0  0  0  0  0
   -4.5406   -0.0427    3.9160 C   0  0  2  0  0  0  0  0  0  0  0  0
   -1.0480    2.7824    2.3982 C   0  0  0  0  0  0  0  0  0  0  0  0
   -1.6673   -1.2875    0.4665 C   0  0  1  0  0  0  0  0  0  0  0  0
   -4.4994    1.8193    2.2529 H   0  0  0  0  0  0  0  0  0  0  0  0
   -4.9189    1.0042    0.7485 H   0  0  0  0  0  0  0  0  0  0  0  0
   -3.4084    1.9123    0.8063 H   0  0  0  0  0  0  0  0  0  0  0  0
    0.0478    0.7631    1.5316 H   0  0  0  0  0  0  0  0  0  0  0  0
   -2.3567    1.0890    4.9055 H   0  0  0  0  0  0  0  0  0  0  0  0
   -4.7736    1.0206    4.2812 H   0  0  0  0  0  0  0  0  0  0  0  0
   -4.4139   -0.5524    4.9578 H   0  0  0  0  0  0  0  0  0  0  0  0
   -2.5818   -1.8681    0.5515 H   0  0  0  0  0  0  0  0  0  0  0  0
   -2.1602    3.5710    2.5761 O   0  0  0  0  0  0  0  0  0  0  0  0
   -1.5546   -1.0962   -0.6413 H   0  0  0  0  0  0  0  0  0  0  0  0
   -0.5911    2.6164    1.0660 N   0  0  0  0  0  0  0  0  0  0  0  0
   -0.8031    3.8375    0.2109 C   0  0  2  0  0  0  0  0  0  0  0  0
   -0.3674    3.2586   -1.1123 C   0  0  0  0  0  0  0  0  0  0  0  0
    0.1512    2.1179   -1.0453 O   0  0  0  0  0  0  0  0  0  0  0  0
    0.2581    4.7808    0.6871 C   0  0  0  0  0  0  0  0  0  0  0  0
    0.2657    6.1296    0.1037 C   0  0  0  0  0  0  0  0  0  0  0  0
    1.2448    7.0303    0.4358 N   0  0  0  0  0  0  0  0  0  0  0  0
   -0.5567    6.8164   -0.7340 C   0  0  0  0  0  0  0  0  0  0  0  0
    0.9950    8.1732   -0.1819 C   0  0  0  0  0  0  0  0  0  0  0  0
   -0.1240    8.0853   -0.9263 N   0  0  0  0  0  0  0  0  0  0  0  0
    0.4834    2.5438    1.0878 H   0  0  0  0  0  0  0  0  0  0  0  0
   -1.8188    4.1613    0.2502 H   0  0  0  0  0  0  0  0  0  0  0  0
    0.2598    4.8493    1.8258 H   0  0  0  0  0  0  0  0  0  0  0  0
    1.2896    4.3626    0.4900 H   0  0  0  0  0  0  0  0  0  0  0  0
   -1.4392    6.4365   -1.1775 H   0  0  0  0  0  0  0  0  0  0  0  0
    1.6095    9.0584   -0.0993 H   0  0  0  0  0  0  0  0  0  0  0  0
   -0.5877    8.8036   -1.5273 H   0  0  0  0  0  0  0  0  0  0  0  0
   -0.4608    3.7975   -2.3918 N   0  0  0  0  0  0  0  0  0  0  0  0
    0.0025    3.1062   -3.6099 C   0  0  1  0  0  0  0  0  0  0  0  0
   -1.1000    2.5122   -4.4016 C   0  0  2  0  0  0  0  0  0  0  0  0
   -2.1770    3.3844   -4.8938 C   0  0  2  0  0  0  0  0  0  0  0  0
   -1.8340    4.4925   -5.8260 C   0  0  1  0  0  0  0  0  0  0  0  0
   -1.2217    3.9484   -7.0541 N   0  0  2  0  0  0  0  0  0  0  0  0
    1.0514    3.7795   -4.3903 C   0  0  0  0  0  0  0  0  0  0  0  0
    1.3116    2.9791   -5.5467 O   0  0  0  0  0  0  0  0  0  0  0  0
   -0.8779    4.7013   -2.5296 H   0  0  0  0  0  0  0  0  0  0  0  0
    0.5508    2.1490   -3.1931 H   0  0  0  0  0  0  0  0  0  0  0  0
   -1.5540    1.6169   -3.8420 H   0  0  0  0  0  0  0  0  0  0  0  0
   -0.6453    1.9789   -5.2999 H   0  0  0  0  0  0  0  0  0  0  0  0
   -2.7789    3.7971   -4.0343 H   0  0  0  0  0  0  0  0  0  0  0  0
   -2.9049    2.7147   -5.4708 H   0  0  0  0  0  0  0  0  0  0  0  0
   -2.8426    4.9050   -6.1653 H   0  0  0  0  0  0  0  0  0  0  0  0
   -1.2429    5.3219   -5.4012 H   0  0  0  0  0  0  0  0  0  0  0  0
   -1.8512    4.1775   -7.9063 H   0  0  0  0  0  0  0  0  0  0  0  0
   -1.0964    2.9017   -6.9962 H   0  0  0  0  0  0  0  0  0  0  0  0
   -0.2767    4.4497   -7.2128 H   0  0  0  0  0  0  0  0  0  0  0  0
    2.2916    3.6885   -3.6027 N   0  0  0  0  0  0  0  0  0  0  0  0
    3.4202    4.3541   -4.3748 C   0  0  2  0  0  0  0  0  0  0  0  0
    4.5909    3.6823   -3.6090 C   0  0  0  0  0  0  0  0  0  0  0  0
    5.7677    4.0839   -4.1493 O   0  0  0  0  0  0  0  0  0  0  0  0
    3.3084    5.7990   -4.2016 C   0  0  2  0  0  0  0  0  0  0  0  0
    4.1300    6.8186   -4.8442 C   0  0  1  0  0  0  0  0  0  0  0  0
    5.5926    6.8428   -4.7225 C   0  0  1  0  0  0  0  0  0  0  0  0
    6.1149    8.1499   -5.3776 C   0  0  2  0  0  0  0  0  0  0  0  0
    2.2024    4.2320   -2.7138 H   0  0  0  0  0  0  0  0  0  0  0  0
    3.3991    3.9946   -5.3783 H   0  0  0  0  0  0  0  0  0  0  0  0
    3.3149    6.0444   -3.0630 H   0  0  0  0  0  0  0  0  0  0  0  0
    2.2073    6.1286   -4.4045 H   0  0  0  0  0  0  0  0  0  0  0  0
    3.8897    6.8587   -5.9675 H   0  0  0  0  0  0  0  0  0  0  0  0
    3.7853    7.8737   -4.5024 H   0  0  0  0  0  0  0  0  0  0  0  0
    5.9689    6.7708   -3.7158 H   0  0  0  0  0  0  0  0  0  0  0  0
    6.0446    6.0921   -5.4533 H   0  0  0  0  0  0  0  0  0  0  0  0
    5.5539    8.3891   -6.2921 H   0  0  0  0  0  0  0  0  0  0  0  0
    7.2062    8.0862   -5.5419 H   0  0  0  0  0  0  0  0  0  0  0  0
    5.9369    8.9656   -4.6492 H   0  0  0  0  0  0  0  0  0  0  0  0
    4.5319    4.1163   -2.2398 N   0  0  0  0  0  0  0  0  0  0  0  0
    5.3703    3.4372   -1.3064 C   0  0  2  0  0  0  0  0  0  0  0  0
    5.0556    1.9875   -1.2010 C   0  0  0  0  0  0  0  0  0  0  0  0
    4.2597    1.3724   -1.9278 O   0  0  0  0  0  0  0  0  0  0  0  0
    5.3012    4.1287    0.0325 C   0  0  0  0  0  0  0  0  0  0  0  0
    5.7517    5.5350   -0.1236 C   0  0  0  0  0  0  0  0  0  0  0  0
    4.8407    6.5772   -0.3416 C   0  0  0  0  0  0  0  0  0  0  0  0
    7.0831    5.9094   -0.0789 C   0  0  0  0  0  0  0  0  0  0  0  0
    5.2261    7.8817   -0.5012 C   0  0  0  0  0  0  0  0  0  0  0  0
    7.4719    7.2414   -0.2411 C   0  0  0  0  0  0  0  0  0  0  0  0
    6.5606    8.2382   -0.4528 C   0  0  0  0  0  0  0  0  0  0  0  0
    6.8712    9.5721   -0.6230 O   0  0  0  0  0  0  0  0  0  0  0  0
    4.8439    5.1480   -2.2024 H   0  0  0  0  0  0  0  0  0  0  0  0
    6.4364    3.5898   -1.6437 H   0  0  0  0  0  0  0  0  0  0  0  0
    4.2297    4.1777    0.3183 H   0  0  0  0  0  0  0  0  0  0  0  0
    5.9297    3.5822    0.7768 H   0  0  0  0  0  0  0  0  0  0  0  0
    3.7954    6.2564   -0.3700 H   0  0  0  0  0  0  0  0  0  0  0  0
    7.8633    5.1453    0.0903 H   0  0  0  0  0  0  0  0  0  0  0  0
    4.4303    8.6046   -0.6671 H   0  0  0  0  0  0  0  0  0  0  0  0
    8.5269    7.5307   -0.2007 H   0  0  0  0  0  0  0  0  0  0  0  0
    6.2016   10.3130   -0.5829 H   0  0  0  0  0  0  0  0  0  0  0  0
    5.6701    1.1371   -0.1962 N   0  0  0  0  0  0  0  0  0  0  0  0
    5.3667   -0.3076   -0.1914 C   0  0  2  0  0  0  0  0  0  0  0  0
    4.1244   -0.5688    0.6379 C   0  0  0  0  0  0  0  0  0  0  0  0
    4.2637   -0.2113    1.9613 O   0  0  0  0  0  0  0  0  0  0  0  0
    6.5416   -1.0206    0.3126 C   0  0  2  0  0  0  0  0  0  0  0  0
    7.0101   -0.6920    1.6973 C   0  0  1  0  0  0  0  0  0  0  0  0
    8.2294   -1.5417    1.9451 N   0  0  2  0  0  0  0  0  0  0  0  0
    6.2799    1.6133    0.4480 H   0  0  0  0  0  0  0  0  0  0  0  0
    5.1322   -0.5896   -1.2438 H   0  0  0  0  0  0  0  0  0  0  0  0
    7.4529   -0.8971   -0.3448 H   0  0  0  0  0  0  0  0  0  0  0  0
    6.3531   -2.1310    0.2974 H   0  0  0  0  0  0  0  0  0  0  0  0
    7.3072    0.3493    1.8509 H   0  0  0  0  0  0  0  0  0  0  0  0
    6.3250   -0.9514    2.5139 H   0  0  0  0  0  0  0  0  0  0  0  0
    8.8029   -1.0318    2.7029 H   0  0  0  0  0  0  0  0  0  0  0  0
    8.7917   -1.6022    1.0473 H   0  0  0  0  0  0  0  0  0  0  0  0
    7.9233   -2.4945    2.2858 H   0  0  0  0  0  0  0  0  0  0  0  0
    3.7147   -1.9251    0.4985 N   0  0  0  0  0  0  0  0  0  0  0  0
    2.5030   -2.2628    1.1674 C   0  0  2  0  0  0  0  0  0  0  0  0
    2.0798   -3.6744    0.9932 C   0  0  0  0  0  0  0  0  0  0  0  0
    2.4545   -4.4213    0.0858 O   0  0  0  0  0  0  0  0  0  0  0  0
    1.3555   -1.4658    0.4539 C   0  0  0  0  0  0  0  0  0  0  0  0
   -0.1906   -2.0564    1.0553 S   0  0  0  0  0  0  0  0  0  0  0  0
    4.4695   -2.6000    0.5895 H   0  0  0  0  0  0  0  0  0  0  0  0
    2.4459   -2.0518    2.2373 H   0  0  0  0  0  0  0  0  0  0  0  0
    1.4889   -1.6452   -0.6454 H   0  0  0  0  0  0  0  0  0  0  0  0
    1.5639   -0.4490    0.7213 H   0  0  0  0  0  0  0  0  0  0  0  0
    1.1594   -4.3047    1.9314 N   0  0  0  0  0  0  0  0  0  0  0  0
    0.7018   -5.6540    1.7857 C   0  0  2  0  0  0  0  0  0  0  0  0
   -0.6317   -5.9047    2.3320 C   0  0  0  0  0  0  0  0  0  0  0  0
   -1.0830   -7.0631    2.2337 O   0  0  0  0  0  0  0  0  0  0  0  0
    1.7075   -6.6529    2.3712 C   0  0  2  0  0  0  0  0  0  0  0  0
    1.9876   -6.4733    3.8192 C   0  0  0  0  0  0  0  0  0  0  0  0
    2.9625   -6.8166    1.6056 C   0  0  0  0  0  0  0  0  0  0  0  0
    3.0169   -7.5317    4.2583 C   0  0  0  0  0  0  0  0  0  0  0  0
    0.8841   -3.6834    2.6940 H   0  0  0  0  0  0  0  0  0  0  0  0
    0.7106   -5.8478    0.6647 H   0  0  0  0  0  0  0  0  0  0  0  0
    1.1548   -7.6437    2.2815 H   0  0  0  0  0  0  0  0  0  0  0  0
    2.4318   -5.4994    4.0135 H   0  0  0  0  0  0  0  0  0  0  0  0
    1.0924   -6.7192    4.4326 H   0  0  0  0  0  0  0  0  0  0  0  0
    3.7560   -6.0694    1.7897 H   0  0  0  0  0  0  0  0  0  0  0  0
    2.8243   -7.0617    0.5127 H   0  0  0  0  0  0  0  0  0  0  0  0
    3.4296   -7.7821    1.9951 H   0  0  0  0  0  0  0  0  0  0  0  0
    3.0630   -7.4775    5.3729 H   0  0  0  0  0  0  0  0  0  0  0  0
    2.7496   -8.5090    3.8663 H   0  0  0  0  0  0  0  0  0  0  0  0
    4.0109   -7.2057    3.8993 H   0  0  0  0  0  0  0  0  0  0  0  0
   -1.5174   -4.9742    2.9854 N   0  0  0  0  0  0  0  0  0  0  0  0
   -2.7468   -5.5055    3.5049 C   0  0  2  0  0  0  0  0  0  0  0  0
   -4.0179   -4.9187    3.1016 C   0  0  0  0  0  0  0  0  0  0  0  0
   -5.0587   -5.5506    3.4040 O   0  0  0  0  0  0  0  0  0  0  0  0
   -2.7643   -5.3996    5.0472 C   0  0  0  0  0  0  0  0  0  0  0  0
   -1.6416   -6.1310    5.6910 C   0  0  0  0  0  0  0  0  0  0  0  0
   -1.8044   -5.9630    7.2099 C   0  0  0  0  0  0  0  0  0  0  0  0
   -0.7205   -6.6575    7.8795 N   0  0  0  0  0  0  0  0  0  0  0  0
   -0.7143   -6.6008    9.3067 C   0  0  0  0  0  0  0  0  0  0  0  0
    0.2830   -7.2316   10.0916 N   0  0  0  0  0  0  0  0  0  0  0  0
   -1.6490   -5.9517    9.9000 N   0  0  0  0  0  0  0  0  0  0  0  0
   -1.1826   -4.0202    3.0128 H   0  0  0  0  0  0  0  0  0  0  0  0
   -2.8299   -6.6079    3.3177 H   0  0  0  0  0  0  0  0  0  0  0  0
   -2.7063   -4.3208    5.2733 H   0  0  0  0  0  0  0  0  0  0  0  0
   -3.7659   -5.7367    5.3377 H   0  0  0  0  0  0  0  0  0  0  0  0
   -0.7006   -5.6114    5.3906 H   0  0  0  0  0  0  0  0  0  0  0  0
   -1.6763   -7.1988    5.4886 H   0  0  0  0  0  0  0  0  0  0  0  0
   -1.7288   -4.8958    7.4946 H   0  0  0  0  0  0  0  0  0  0  0  0
   -2.8056   -6.3217    7.5192 H   0  0  0  0  0  0  0  0  0  0  0  0
    0.0316   -7.1816    7.4014 H   0  0  0  0  0  0  0  0  0  0  0  0
    0.1357   -8.1714   10.5449 H   0  0  0  0  0  0  0  0  0  0  0  0
    1.1923   -6.6966   10.1967 H   0  0  0  0  0  0  0  0  0  0  0  0
   -2.4292   -5.4525    9.3934 H   0  0  0  0  0  0  0  0  0  0  0  0
   -1.6914   -5.8809   10.9392 H   0  0  0  0  0  0  0  0  0  0  0  0
   -4.2622   -3.6857    2.4007 N   0  0  0  0  0  0  0  0  0  0  0  0
   -5.6032   -3.3963    2.0426 C   0  0  2  0  0  0  0  0  0  0  0  0
   -5.8831   -3.1174    0.6092 C   0  0  0  0  0  0  0  0  0  0  0  0
   -7.1103   -2.8138    0.3691 O   0  0  0  0  0  0  0  0  0  0  0  0
   -6.2813   -2.4167    2.9474 C   0  0  0  0  0  0  0  0  0  0  0  0
   -5.8873   -0.7726    3.1331 S   0  0  0  0  0  0  0  0  0  0  0  0
   -3.4174   -3.1408    2.2472 H   0  0  0  0  0  0  0  0  0  0  0  0
   -6.2548   -4.3535    2.2001 H   0  0  0  0  0  0  0  0  0  0  0  0
   -6.3379   -2.8966    4.0081 H   0  0  0  0  0  0  0  0  0  0  0  0
   -7.4359   -2.4834    2.7217 H   0  0  0  0  0  0  0  0  0  0  0  0
   -4.9526   -3.1620   -0.4399 N   0  0  0  0  0  0  0  0  0  0  0  0
   -5.3321   -2.8511   -1.8453 C   0  0  2  0  0  0  0  0  0  0  0  0
   -5.8887   -1.5205   -1.9515 C   0  0  0  0  0  0  0  0  0  0  0  0
   -6.1129   -0.8826   -0.8536 O   0  0  0  0  0  0  0  0  0  0  0  0
   -6.2002   -3.9497   -2.3518 C   0  0  0  0  0  0  0  0  0  0  0  0
   -6.6437   -3.7532   -3.7315 C   0  0  0  0  0  0  0  0  0  0  0  0
   -5.7576   -4.1375   -4.7424 C   0  0  0  0  0  0  0  0  0  0  0  0
   -7.9127   -3.2694   -4.0747 C   0  0  0  0  0  0  0  0  0  0  0  0
   -6.1020   -4.0529   -6.0830 C   0  0  0  0  0  0  0  0  0  0  0  0
   -8.1971   -3.2087   -5.4096 C   0  0  0  0  0  0  0  0  0  0  0  0
   -7.3506   -3.5775   -6.4223 C   0  0  0  0  0  0  0  0  0  0  0  0
   -7.6798   -3.5015   -7.7629 O   0  0  0  0  0  0  0  0  0  0  0  0
   -3.9794   -3.4501   -0.2140 H   0  0  0  0  0  0  0  0  0  0  0  0
   -4.3622   -2.8779   -2.4206 H   0  0  0  0  0  0  0  0  0  0  0  0
   -5.6327   -4.9137   -2.2261 H   0  0  0  0  0  0  0  0  0  0  0  0
   -7.0987   -3.9984   -1.6466 H   0  0  0  0  0  0  0  0  0  0  0  0
   -4.7775   -4.5113   -4.4736 H   0  0  0  0  0  0  0  0  0  0  0  0
   -8.5897   -2.9728   -3.2976 H   0  0  0  0  0  0  0  0  0  0  0  0
   -5.3645   -4.3719   -6.8124 H   0  0  0  0  0  0  0  0  0  0  0  0
   -9.1761   -2.8399   -5.6920 H   0  0  0  0  0  0  0  0  0  0  0  0
   -7.4013   -2.6645   -8.2594 H   0  0  0  0  0  0  0  0  0  0  0  0
   -6.2267   -0.8000   -3.1199 N   0  0  0  0  0  0  0  0  0  0  0  0
   -6.7933    0.5259   -3.0384 C   0  0  2  0  0  0  0  0  0  0  0  0
   -8.0024    0.7282   -3.8341 C   0  0  0  0  0  0  0  0  0  0  0  0
   -8.5671   -0.1305   -4.5568 O   0  0  0  0  0  0  0  0  0  0  0  0
   -5.7547    1.5334   -3.5359 C   0  0  0  0  0  0  0  0  0  0  0  0
   -6.0382   -1.2411   -4.0386 H   0  0  0  0  0  0  0  0  0  0  0  0
   -6.9386    0.7968   -1.9550 H   0  0  0  0  0  0  0  0  0  0  0  0
   -4.8247    1.5126   -2.9348 H   0  0  0  0  0  0  0  0  0  0  0  0
   -6.1450    2.5830   -3.3827 H   0  0  0  0  0  0  0  0  0  0  0  0
   -5.4949    1.3427   -4.5913 H   0  0  0  0  0  0  0  0  0  0  0  0
   -8.6491    2.0217   -3.8252 N   0  0  0  0  0  0  0  0  0  0  0  0
   -8.2329    2.8437   -4.3102 H   0  0  0  0  0  0  0  0  0  0  0  0
   -9.5592    2.0467   -3.2957 H   0  0  0  0  0  0  0  0  0  0  0  0
   -3.7851   -0.9048    1.4462 H   0  0  0  0  0  0  0  0  0  0  0  0
   -1.9261    0.8221    0.3941 H   0  0  0  0  0  0  0  0  0  0  0  0
   -0.3702   -0.5535    2.6180 H   0  0  0  0  0  0  0  0  0  0  0  0
   -0.3516    1.3717    3.9199 H   0  0  0  0  0  0  0  0  0  0  0  0
   -3.0735    2.1329    3.6486 H   0  0  0  0  0  0  0  0  0  0  0  0
   -2.6001   -0.8854    3.6965 H   0  0  0  0  0  0  0  0  0  0  0  0
   -0.2084    3.3008    2.9608 H   0  0  0  0  0  0  0  0  0  0  0  0
   -2.0419    4.2278    3.3147 H   0  0  0  0  0  0  0  0  0  0  0  0
    0.8304    4.8024   -4.6267 H   0  0  0  0  0  0  0  0  0  0  0  0
    1.5024    2.0701   -5.2267 H   0  0  0  0  0  0  0  0  0  0  0  0
    4.5082    2.5890   -3.7604 H   0  0  0  0  0  0  0  0  0  0  0  0
    6.5775    3.8023   -3.6643 H   0  0  0  0  0  0  0  0  0  0  0  0
    3.3035    0.1313    0.2526 H   0  0  0  0  0  0  0  0  0  0  0  0
    3.9551   -0.8330    2.6302 H   0  0  0  0  0  0  0  0  0  0  0  0
  1  2  1  0
  1 11  1  1
  1 12  1  0
  1 13  1  0
  2  3  1  0
  2  7  1  0
  3  4  1  0
  3 10  1  0
  4  5  1  0
  4 14  1  0
  5  6  1  0
  5  9  1  0
  6  7  1  0
  6 15  1  0
  7  8  1  0
  8 16  1  1
  8 17  1  0
  8171  1  0
  9 19  1  0
  9 21  1  0
 10 18  1  6
 10 20  1  0
 10118  1  0
 23 38  1  0
 38 39  1  0
 38 46  1  0
 39 40  1  0
 39 44  1  0
 39 47  1  1
 40 41  1  0
 40 48  1  1
 40 49  1  0
 41 42  1  0
 41 50  1  1
 41 51  1  0
 42 43  1  0
 42 52  1  6
 42 53  1  0
 43 54  1  6
 43 55  1  0
 44 45  1  0
 44 57  1  0
 57 58  1  0
 57 65  1  0
 58 59  1  0
 58 61  1  0
 58 66  1  6
 59 60  1  0
 59 76  1  0
 61 62  1  0
 61 67  1  1
 61 68  1  0
 62 63  1  0
 62 69  1  6
 62 70  1  0
 63 64  1  0
 63 71  1  1
 63 72  1  0
 64 73  1  6
 64 74  1  0
 64 75  1  0
 78 97  1  0
 97 98  1  0
 97104  1  0
 98 99  1  0
 98101  1  0
 98105  1  6
 99100  1  0
 99113  1  0
101102  1  0
101106  1  6
101107  1  0
102103  1  0
102108  1  6
102109  1  0
103110  1  1
103111  1  0
199207  1  0
207208  1  0
207209  1  0
 22 21  1  0
 23 22  1  0
 24 23  2  0
 25 22  1  0
 26 25  1  0
 27 26  1  0
 28 26  2  0
 29 27  2  0
 30 28  1  0
 30 29  1  0
 31 21  1  0
 22 32  1  6
 33 25  1  0
 34 25  1  0
 35 28  1  0
 36 29  1  0
 37 30  1  0
 56 43  1  0
 77 76  1  0
 78 77  1  0
 79 78  2  0
 80 77  1  0
 81 80  1  0
 82 81  2  0
 83 81  1  0
 84 82  1  0
 85 83  2  0
 86 85  1  0
 86 84  2  0
 87 86  1  0
 88 76  1  0
 77 89  1  6
 90 80  1  0
 91 80  1  0
 92 82  1  0
 93 83  1  0
 94 84  1  0
 95 85  1  0
 96 87  1  0
112103  1  0
114113  1  0
115114  1  0
116115  2  0
117114  1  0
118117  1  0
119113  1  0
114120  1  1
121117  1  0
122117  1  0
123115  1  0
124123  1  0
125124  1  0
126125  2  0
127124  1  0
128127  1  0
129127  1  0
130128  1  0
131123  1  0
124132  1  6
127133  1  1
134128  1  0
135128  1  0
136129  1  0
137129  1  0
138129  1  0
139130  1  0
140130  1  0
141130  1  0
142125  1  0
143142  1  0
144143  1  0
145144  2  0
146143  1  0
147146  1  0
148147  1  0
149148  1  0
150149  1  0
151150  1  0
152150  2  0
153142  1  0
143154  1  1
155146  1  0
156146  1  0
157147  1  0
158147  1  0
159148  1  0
160148  1  0
161149  1  0
162151  1  0
163151  1  0
164152  1  0
165152  1  0
166144  1  0
167166  1  0
168167  1  0
169168  2  0
170167  1  0
171170  1  0
172166  1  0
167173  1  1
174170  1  0
175170  1  0
176168  1  0
177176  1  0
178177  1  0
179178  2  0
180177  1  0
181180  1  0
182181  2  0
183181  1  0
184182  1  0
185183  2  0
186185  1  0
186184  2  0
187186  1  0
188176  1  0
177189  1  6
190180  1  0
191180  1  0
192182  1  0
193183  1  0
194184  1  0
195185  1  0
196187  1  0
197178  1  0
198197  1  0
199198  1  0
200199  2  0
201198  1  0
202197  1  0
198203  1  1
204201  1  0
205201  1  0
206201  1  0
  2210  1  6
  3211  1  6
  4212  1  0
  5213  1  0
  6214  1  0
  7215  1  0
  9216  1  0
 19217  1  0
 44218  1  0
 45219  1  0
 59220  1  0
 60221  1  0
 99222  1  0
100223  1  0
M  CHG  3  43   1 103   1 152   1
M  END
$$$$
BP70
     RDKit          3D

223228  0  0  0  0  0  0  0  0999 V2000
    3.5310   -6.7205    0.7108 C   0  0  2  0  0  0  0  0  0  0  0  0
    2.3096   -5.7695    0.7149 C   0  0  1  0  0  0  0  0  0  0  0  0
    2.2243   -5.2390    2.0820 C   0  0  1  0  0  0  0  0  0  0  0  0
    3.2970   -4.2480    2.3175 C   0  0  0  0  0  0  0  0  0  0  0  0
    3.4806   -3.1681    1.2842 C   0  0  0  0  0  0  0  0  0  0  0  0
    3.0215   -3.4759   -0.0682 C   0  0  0  0  0  0  0  0  0  0  0  0
    2.4173   -4.7641   -0.4165 C   0  0  0  0  0  0  0  0  0  0  0  0
    3.0630   -5.5255   -1.5508 C   0  0  2  0  0  0  0  0  0  0  0  0
    3.0383   -1.8524    1.8726 C   0  0  0  0  0  0  0  0  0  0  0  0
    0.9333   -4.7657    2.6147 C   0  0  1  0  0  0  0  0  0  0  0  0
    3.2657   -7.7306    0.3477 H   0  0  0  0  0  0  0  0  0  0  0  0
    3.8568   -6.9175    1.7835 H   0  0  0  0  0  0  0  0  0  0  0  0
    4.4017   -6.2948    0.2224 H   0  0  0  0  0  0  0  0  0  0  0  0
    3.0759   -3.7581    3.3046 H   0  0  0  0  0  0  0  0  0  0  0  0
    3.8487   -3.3039   -0.8284 H   0  0  0  0  0  0  0  0  0  0  0  0
    3.1714   -6.6403   -1.2835 H   0  0  0  0  0  0  0  0  0  0  0  0
    4.1513   -5.1962   -1.5281 H   0  0  0  0  0  0  0  0  0  0  0  0
    1.0915   -4.6635    3.7338 H   0  0  0  0  0  0  0  0  0  0  0  0
    3.6852   -1.7799    3.1254 O   0  0  0  0  0  0  0  0  0  0  0  0
    0.6116   -3.8555    2.1467 H   0  0  0  0  0  0  0  0  0  0  0  0
    3.0660   -0.6943    1.1288 N   0  0  0  0  0  0  0  0  0  0  0  0
    2.6346    0.5255    1.5705 C   0  0  2  0  0  0  0  0  0  0  0  0
    3.1920    1.2356    2.7283 C   0  0  0  0  0  0  0  0  0  0  0  0
    4.0817    0.8477    3.4876 O   0  0  0  0  0  0  0  0  0  0  0  0
    1.1317    0.4123    1.8950 C   0  0  0  0  0  0  0  0  0  0  0  0
    0.3075    0.0674    0.7480 C   0  0  0  0  0  0  0  0  0  0  0  0
   -0.2568    0.9976   -0.0665 N   0  0  0  0  0  0  0  0  0  0  0  0
   -0.0646   -1.1574    0.2632 C   0  0  0  0  0  0  0  0  0  0  0  0
   -0.9608    0.4041   -1.0318 C   0  0  0  0  0  0  0  0  0  0  0  0
   -0.8311   -0.9184   -0.8146 N   0  0  0  0  0  0  0  0  0  0  0  0
    3.0107   -0.8291    0.1033 H   0  0  0  0  0  0  0  0  0  0  0  0
    2.6480    1.2649    0.7167 H   0  0  0  0  0  0  0  0  0  0  0  0
    0.8175    1.3601    2.3062 H   0  0  0  0  0  0  0  0  0  0  0  0
    1.0809   -0.3241    2.7284 H   0  0  0  0  0  0  0  0  0  0  0  0
    0.1875   -2.1312    0.6385 H   0  0  0  0  0  0  0  0  0  0  0  0
   -1.5086    0.9282   -1.7967 H   0  0  0  0  0  0  0  0  0  0  0  0
   -1.2422   -1.6876   -1.3708 H   0  0  0  0  0  0  0  0  0  0  0  0
    2.6522    2.5204    3.0145 N   0  0  0  0  0  0  0  0  0  0  0  0
    2.9663    3.3722    4.1241 C   0  0  1  0  0  0  0  0  0  0  0  0
    3.4150    4.7416    3.8572 C   0  0  2  0  0  0  0  0  0  0  0  0
    2.5167    5.6668    3.1156 C   0  0  2  0  0  0  0  0  0  0  0  0
    3.3159    6.9839    2.9784 C   0  0  1  0  0  0  0  0  0  0  0  0
    2.4739    7.9564    2.2382 N   0  0  2  0  0  0  0  0  0  0  0  0
    1.8333    3.3642    5.1484 C   0  0  0  0  0  0  0  0  0  0  0  0
    1.8036    2.0365    5.7321 O   0  0  0  0  0  0  0  0  0  0  0  0
    1.9741    2.8834    2.3276 H   0  0  0  0  0  0  0  0  0  0  0  0
    3.8243    2.9082    4.7381 H   0  0  0  0  0  0  0  0  0  0  0  0
    4.4568    4.8214    3.4589 H   0  0  0  0  0  0  0  0  0  0  0  0
    3.5282    5.2223    4.8832 H   0  0  0  0  0  0  0  0  0  0  0  0
    1.6578    5.9743    3.7531 H   0  0  0  0  0  0  0  0  0  0  0  0
    2.2549    5.3797    2.0922 H   0  0  0  0  0  0  0  0  0  0  0  0
    3.4577    7.3610    4.0026 H   0  0  0  0  0  0  0  0  0  0  0  0
    4.2754    6.8178    2.4831 H   0  0  0  0  0  0  0  0  0  0  0  0
    1.6891    7.4173    1.7522 H   0  0  0  0  0  0  0  0  0  0  0  0
    3.0858    8.4236    1.4961 H   0  0  0  0  0  0  0  0  0  0  0  0
    2.0978    8.6683    2.9213 H   0  0  0  0  0  0  0  0  0  0  0  0
    0.5541    3.3929    4.4956 N   0  0  0  0  0  0  0  0  0  0  0  0
   -0.5078    3.7051    5.4810 C   0  0  2  0  0  0  0  0  0  0  0  0
   -1.8546    3.3719    4.7905 C   0  0  0  0  0  0  0  0  0  0  0  0
   -2.8957    3.6864    5.6888 O   0  0  0  0  0  0  0  0  0  0  0  0
   -0.4558    5.2012    5.6396 C   0  0  2  0  0  0  0  0  0  0  0  0
   -1.4012    5.8335    6.5825 C   0  0  1  0  0  0  0  0  0  0  0  0
   -1.0706    7.3501    6.5612 C   0  0  1  0  0  0  0  0  0  0  0  0
   -1.2370    7.9131    5.1693 C   0  0  2  0  0  0  0  0  0  0  0  0
    0.4102    4.0209    3.7242 H   0  0  0  0  0  0  0  0  0  0  0  0
   -0.3825    3.1915    6.4228 H   0  0  0  0  0  0  0  0  0  0  0  0
   -0.6269    5.6320    4.5957 H   0  0  0  0  0  0  0  0  0  0  0  0
    0.5681    5.5627    5.8917 H   0  0  0  0  0  0  0  0  0  0  0  0
   -2.4786    5.7328    6.3398 H   0  0  0  0  0  0  0  0  0  0  0  0
   -1.2381    5.4973    7.6202 H   0  0  0  0  0  0  0  0  0  0  0  0
   -1.8026    7.8965    7.1967 H   0  0  0  0  0  0  0  0  0  0  0  0
   -0.0195    7.5200    6.8647 H   0  0  0  0  0  0  0  0  0  0  0  0
   -2.2374    7.6463    4.7289 H   0  0  0  0  0  0  0  0  0  0  0  0
   -0.3865    7.6498    4.5165 H   0  0  0  0  0  0  0  0  0  0  0  0
   -1.2022    9.0346    5.2960 H   0  0  0  0  0  0  0  0  0  0  0  0
   -1.9514    1.9206    4.6537 N   0  0  0  0  0  0  0  0  0  0  0  0
   -3.0505    1.4424    3.8723 C   0  0  2  0  0  0  0  0  0  0  0  0
   -3.1426   -0.0611    3.9574 C   0  0  0  0  0  0  0  0  0  0  0  0
   -3.8367   -0.7047    3.1609 O   0  0  0  0  0  0  0  0  0  0  0  0
   -3.0031    1.9557    2.4788 C   0  0  0  0  0  0  0  0  0  0  0  0
   -4.1147    1.5180    1.6028 C   0  0  0  0  0  0  0  0  0  0  0  0
   -5.2831    2.2694    1.6764 C   0  0  0  0  0  0  0  0  0  0  0  0
   -4.0907    0.4804    0.7256 C   0  0  0  0  0  0  0  0  0  0  0  0
   -6.3933    2.0114    0.9129 C   0  0  0  0  0  0  0  0  0  0  0  0
   -5.2004    0.2111   -0.0467 C   0  0  0  0  0  0  0  0  0  0  0  0
   -6.3662    0.9654    0.0304 C   0  0  0  0  0  0  0  0  0  0  0  0
   -7.4738    0.6626   -0.7698 O   0  0  0  0  0  0  0  0  0  0  0  0
   -2.0951    1.5706    5.6604 H   0  0  0  0  0  0  0  0  0  0  0  0
   -3.9901    1.8719    4.3411 H   0  0  0  0  0  0  0  0  0  0  0  0
   -2.8639    3.0309    2.3818 H   0  0  0  0  0  0  0  0  0  0  0  0
   -2.0731    1.5050    2.0137 H   0  0  0  0  0  0  0  0  0  0  0  0
   -5.3485    3.1054    2.3627 H   0  0  0  0  0  0  0  0  0  0  0  0
   -3.2104   -0.1249    0.6292 H   0  0  0  0  0  0  0  0  0  0  0  0
   -7.3107    2.6078    0.9799 H   0  0  0  0  0  0  0  0  0  0  0  0
   -5.2046   -0.6049   -0.7491 H   0  0  0  0  0  0  0  0  0  0  0  0
   -8.2856    1.2520   -0.6938 H   0  0  0  0  0  0  0  0  0  0  0  0
   -2.4733   -0.8340    4.9355 N   0  0  0  0  0  0  0  0  0  0  0  0
   -2.4304   -2.2551    5.0937 C   0  0  2  0  0  0  0  0  0  0  0  0
   -3.5342   -3.0693    4.4978 C   0  0  0  0  0  0  0  0  0  0  0  0
   -3.3592   -4.3790    5.0591 O   0  0  0  0  0  0  0  0  0  0  0  0
   -2.2654   -2.6020    6.5233 C   0  0  2  0  0  0  0  0  0  0  0  0
   -1.0147   -2.0703    7.1789 C   0  0  1  0  0  0  0  0  0  0  0  0
   -1.0639   -2.5477    8.5985 N   0  0  2  0  0  0  0  0  0  0  0  0
   -1.9376   -0.2793    5.6255 H   0  0  0  0  0  0  0  0  0  0  0  0
   -1.4495   -2.6215    4.5716 H   0  0  0  0  0  0  0  0  0  0  0  0
   -2.2751   -3.7235    6.6782 H   0  0  0  0  0  0  0  0  0  0  0  0
   -3.1283   -2.2429    7.1551 H   0  0  0  0  0  0  0  0  0  0  0  0
   -0.0791   -2.4688    6.7850 H   0  0  0  0  0  0  0  0  0  0  0  0
   -1.0280   -0.9734    7.2850 H   0  0  0  0  0  0  0  0  0  0  0  0
   -0.5497   -1.8567    9.2081 H   0  0  0  0  0  0  0  0  0  0  0  0
   -0.6182   -3.5183    8.6401 H   0  0  0  0  0  0  0  0  0  0  0  0
   -2.0965   -2.6237    8.8724 H   0  0  0  0  0  0  0  0  0  0  0  0
   -3.4668   -3.2770    3.0620 N   0  0  0  0  0  0  0  0  0  0  0  0
   -2.3365   -3.9762    2.5705 C   0  0  2  0  0  0  0  0  0  0  0  0
   -2.3550   -4.3103    1.1490 C   0  0  0  0  0  0  0  0  0  0  0  0
   -1.3547   -4.9199    0.6936 O   0  0  0  0  0  0  0  0  0  0  0  0
   -1.8564   -5.1671    3.3531 C   0  0  0  0  0  0  0  0  0  0  0  0
   -0.4250   -5.9497    2.4893 S   0  0  0  0  0  0  0  0  0  0  0  0
   -4.3501   -3.7113    2.7849 H   0  0  0  0  0  0  0  0  0  0  0  0
   -1.4762   -3.2338    2.6500 H   0  0  0  0  0  0  0  0  0  0  0  0
   -1.4099   -4.9099    4.3361 H   0  0  0  0  0  0  0  0  0  0  0  0
   -2.6309   -5.9240    3.4668 H   0  0  0  0  0  0  0  0  0  0  0  0
   -3.3641   -4.0456    0.1642 N   0  0  0  0  0  0  0  0  0  0  0  0
   -3.0533   -4.5217   -1.1684 C   0  0  2  0  0  0  0  0  0  0  0  0
   -3.1622   -3.5079   -2.2552 C   0  0  0  0  0  0  0  0  0  0  0  0
   -4.0196   -2.6467   -2.3695 O   0  0  0  0  0  0  0  0  0  0  0  0
   -4.1505   -5.5555   -1.4758 C   0  0  2  0  0  0  0  0  0  0  0  0
   -3.9729   -6.1690   -2.8380 C   0  0  0  0  0  0  0  0  0  0  0  0
   -5.5164   -4.9015   -1.4741 C   0  0  0  0  0  0  0  0  0  0  0  0
   -2.6659   -6.8929   -2.9482 C   0  0  0  0  0  0  0  0  0  0  0  0
   -4.1781   -3.5584    0.4883 H   0  0  0  0  0  0  0  0  0  0  0  0
   -2.1157   -5.0570   -1.2279 H   0  0  0  0  0  0  0  0  0  0  0  0
   -4.1186   -6.3646   -0.7116 H   0  0  0  0  0  0  0  0  0  0  0  0
   -4.8389   -6.8709   -3.0080 H   0  0  0  0  0  0  0  0  0  0  0  0
   -4.0975   -5.3985   -3.6356 H   0  0  0  0  0  0  0  0  0  0  0  0
   -5.8696   -4.6755   -2.5071 H   0  0  0  0  0  0  0  0  0  0  0  0
   -6.2422   -5.6463   -1.0346 H   0  0  0  0  0  0  0  0  0  0  0  0
   -5.5906   -3.9928   -0.8744 H   0  0  0  0  0  0  0  0  0  0  0  0
   -2.0924   -6.8975   -2.0228 H   0  0  0  0  0  0  0  0  0  0  0  0
   -2.8860   -7.9661   -3.1857 H   0  0  0  0  0  0  0  0  0  0  0  0
   -2.0691   -6.4309   -3.7556 H   0  0  0  0  0  0  0  0  0  0  0  0
   -2.1478   -3.5463   -3.2416 N   0  0  0  0  0  0  0  0  0  0  0  0
   -1.9679   -2.7961   -4.4490 C   0  0  2  0  0  0  0  0  0  0  0  0
   -0.4917   -2.7356   -4.7436 C   0  0  0  0  0  0  0  0  0  0  0  0
    0.0164   -2.5185   -5.8327 O   0  0  0  0  0  0  0  0  0  0  0  0
   -2.4099   -1.3224   -4.2666 C   0  0  0  0  0  0  0  0  0  0  0  0
   -2.2211   -0.6082   -5.5902 C   0  0  0  0  0  0  0  0  0  0  0  0
   -2.6414    0.8554   -5.5258 C   0  0  0  0  0  0  0  0  0  0  0  0
   -1.8531    1.5852   -4.5748 N   0  0  0  0  0  0  0  0  0  0  0  0
   -2.0137    2.9604   -4.2635 C   0  0  0  0  0  0  0  0  0  0  0  0
   -1.1689    3.5954   -3.2943 N   0  0  0  0  0  0  0  0  0  0  0  0
   -2.9330    3.6342   -4.8678 N   0  0  0  0  0  0  0  0  0  0  0  0
   -1.4118   -4.2729   -3.0465 H   0  0  0  0  0  0  0  0  0  0  0  0
   -2.5335   -3.1153   -5.3209 H   0  0  0  0  0  0  0  0  0  0  0  0
   -1.8185   -0.8663   -3.4669 H   0  0  0  0  0  0  0  0  0  0  0  0
   -3.4699   -1.2943   -4.0529 H   0  0  0  0  0  0  0  0  0  0  0  0
   -2.8855   -1.0954   -6.3310 H   0  0  0  0  0  0  0  0  0  0  0  0
   -1.1798   -0.7048   -5.8915 H   0  0  0  0  0  0  0  0  0  0  0  0
   -2.4354    1.2685   -6.5243 H   0  0  0  0  0  0  0  0  0  0  0  0
   -3.7204    0.8783   -5.3597 H   0  0  0  0  0  0  0  0  0  0  0  0
   -1.0985    1.0779   -4.0813 H   0  0  0  0  0  0  0  0  0  0  0  0
   -0.1321    3.6111   -3.3804 H   0  0  0  0  0  0  0  0  0  0  0  0
   -1.5845    4.0718   -2.4530 H   0  0  0  0  0  0  0  0  0  0  0  0
   -3.0719    4.6482   -4.6568 H   0  0  0  0  0  0  0  0  0  0  0  0
   -3.5543    3.2018   -5.5710 H   0  0  0  0  0  0  0  0  0  0  0  0
    0.4643   -2.9418   -3.6635 N   0  0  0  0  0  0  0  0  0  0  0  0
    1.8805   -2.8971   -3.8145 C   0  0  2  0  0  0  0  0  0  0  0  0
    2.4058   -1.6839   -4.5197 C   0  0  0  0  0  0  0  0  0  0  0  0
    3.6272   -1.8099   -4.9097 O   0  0  0  0  0  0  0  0  0  0  0  0
    2.5634   -4.1303   -4.2431 C   0  0  0  0  0  0  0  0  0  0  0  0
    2.3636   -5.4928   -3.1530 S   0  0  0  0  0  0  0  0  0  0  0  0
    0.0439   -3.1115   -2.7601 H   0  0  0  0  0  0  0  0  0  0  0  0
    2.2704   -2.7039   -2.7485 H   0  0  0  0  0  0  0  0  0  0  0  0
    2.2442   -4.4607   -5.2791 H   0  0  0  0  0  0  0  0  0  0  0  0
    3.6570   -3.8554   -4.3614 H   0  0  0  0  0  0  0  0  0  0  0  0
    1.6994   -0.5020   -4.7617 N   0  0  0  0  0  0  0  0  0  0  0  0
    2.3568    0.5925   -5.4947 C   0  0  2  0  0  0  0  0  0  0  0  0
    2.8432    1.6328   -4.5908 C   0  0  0  0  0  0  0  0  0  0  0  0
    3.4214    2.6381   -5.1086 O   0  0  0  0  0  0  0  0  0  0  0  0
    1.4988    1.1161   -6.5874 C   0  0  0  0  0  0  0  0  0  0  0  0
    2.0468    2.2055   -7.3899 C   0  0  0  0  0  0  0  0  0  0  0  0
    1.8719    3.5514   -7.1589 C   0  0  0  0  0  0  0  0  0  0  0  0
    2.8322    1.8706   -8.4872 C   0  0  0  0  0  0  0  0  0  0  0  0
    2.4378    4.5216   -7.9605 C   0  0  0  0  0  0  0  0  0  0  0  0
    3.4036    2.8423   -9.2968 C   0  0  0  0  0  0  0  0  0  0  0  0
    3.2210    4.1863   -9.0538 C   0  0  0  0  0  0  0  0  0  0  0  0
    3.8117    5.1065   -9.8899 O   0  0  0  0  0  0  0  0  0  0  0  0
    0.7269   -0.3967   -4.4124 H   0  0  0  0  0  0  0  0  0  0  0  0
    3.2720    0.0810   -5.9411 H   0  0  0  0  0  0  0  0  0  0  0  0
    0.5181    1.4443   -6.1477 H   0  0  0  0  0  0  0  0  0  0  0  0
    1.2301    0.2819   -7.2820 H   0  0  0  0  0  0  0  0  0  0  0  0
    1.2676    3.8360   -6.3240 H   0  0  0  0  0  0  0  0  0  0  0  0
    3.0131    0.8191   -8.7285 H   0  0  0  0  0  0  0  0  0  0  0  0
    2.3065    5.5815   -7.7859 H   0  0  0  0  0  0  0  0  0  0  0  0
    4.0176    2.5695  -10.1544 H   0  0  0  0  0  0  0  0  0  0  0  0
    3.4461    6.0341  -10.0799 H   0  0  0  0  0  0  0  0  0  0  0  0
    2.7352    1.6302   -3.1809 N   0  0  0  0  0  0  0  0  0  0  0  0
    3.2598    2.7153   -2.3854 C   0  0  2  0  0  0  0  0  0  0  0  0
    4.3902    2.2735   -1.5245 C   0  0  0  0  0  0  0  0  0  0  0  0
    5.0003    3.0443   -0.7374 O   0  0  0  0  0  0  0  0  0  0  0  0
    2.2057    3.3095   -1.4984 C   0  0  0  0  0  0  0  0  0  0  0  0
    2.2520    0.7957   -2.7452 H   0  0  0  0  0  0  0  0  0  0  0  0
    3.6604    3.4762   -3.1016 H   0  0  0  0  0  0  0  0  0  0  0  0
    1.2510    2.7604   -1.6123 H   0  0  0  0  0  0  0  0  0  0  0  0
    2.5333    3.3754   -0.4331 H   0  0  0  0  0  0  0  0  0  0  0  0
    1.9805    4.3622   -1.8493 H   0  0  0  0  0  0  0  0  0  0  0  0
    4.8241    0.9205   -1.5714 N   0  0  0  0  0  0  0  0  0  0  0  0
    4.1563    0.1148   -1.7665 H   0  0  0  0  0  0  0  0  0  0  0  0
    5.8390    0.6636   -1.4140 H   0  0  0  0  0  0  0  0  0  0  0  0
    1.4418   -6.4404    0.5508 H   0  0  0  0  0  0  0  0  0  0  0  0
    2.4936   -6.1286    2.7641 H   0  0  0  0  0  0  0  0  0  0  0  0
    4.2559   -4.8084    2.5325 H   0  0  0  0  0  0  0  0  0  0  0  0
    4.6154   -3.0506    1.2337 H   0  0  0  0  0  0  0  0  0  0  0  0
    2.3051   -2.6507   -0.3675 H   0  0  0  0  0  0  0  0  0  0  0  0
    1.3480   -4.6274   -0.7648 H   0  0  0  0  0  0  0  0  0  0  0  0
    1.9801   -2.0216    2.1979 H   0  0  0  0  0  0  0  0  0  0  0  0
    4.6651   -1.9140    3.0142 H   0  0  0  0  0  0  0  0  0  0  0  0
    1.9092    4.0551    5.9466 H   0  0  0  0  0  0  0  0  0  0  0  0
    2.4654    2.0701    6.4569 H   0  0  0  0  0  0  0  0  0  0  0  0
   -2.0137    3.8965    3.8791 H   0  0  0  0  0  0  0  0  0  0  0  0
   -2.7788    3.0557    6.4474 H   0  0  0  0  0  0  0  0  0  0  0  0
   -4.4928   -2.7151    4.7802 H   0  0  0  0  0  0  0  0  0  0  0  0
   -4.0888   -4.6186    5.6484 H   0  0  0  0  0  0  0  0  0  0  0  0
  1  2  1  0
  1 11  1  6
  1 12  1  0
  1 13  1  0
  2  3  1  0
  2  7  1  0
  3  4  1  0
  3 10  1  0
  4  5  1  0
  4 14  1  0
  5  6  1  0
  5  9  1  0
  6  7  1  0
  6 15  1  0
  7  8  1  0
  8 16  1  1
  8 17  1  0
  8171  1  0
  9 19  1  0
  9 21  1  0
 10 18  1  1
 10 20  1  0
 10118  1  0
 23 38  1  0
 38 39  1  0
 38 46  1  0
 39 40  1  0
 39 44  1  0
 39 47  1  1
 40 41  1  0
 40 48  1  6
 40 49  1  0
 41 42  1  0
 41 50  1  1
 41 51  1  0
 42 43  1  0
 42 52  1  1
 42 53  1  0
 43 54  1  6
 43 55  1  0
 44 45  1  0
 44 57  1  0
 57 58  1  0
 57 65  1  0
 58 59  1  0
 58 61  1  0
 58 66  1  1
 59 60  1  0
 59 76  1  0
 61 62  1  0
 61 67  1  6
 61 68  1  0
 62 63  1  0
 62 69  1  6
 62 70  1  0
 63 64  1  0
 63 71  1  1
 63 72  1  0
 64 73  1  6
 64 74  1  0
 64 75  1  0
 78 97  1  0
 97 98  1  0
 97104  1  0
 98 99  1  0
 98101  1  0
 98105  1  6
 99100  1  0
 99113  1  0
101102  1  0
101106  1  6
101107  1  0
102103  1  0
102108  1  6
102109  1  0
103110  1  1
103111  1  0
199207  1  0
207208  1  0
207209  1  0
 22 21  1  0
 23 22  1  0
 24 23  2  0
 25 22  1  0
 26 25  1  0
 27 26  1  0
 28 26  2  0
 29 27  2  0
 30 28  1  0
 30 29  1  0
 31 21  1  0
 22 32  1  6
 33 25  1  0
 34 25  1  0
 35 28  1  0
 36 29  1  0
 37 30  1  0
 56 43  1  0
 77 76  1  0
 78 77  1  0
 79 78  2  0
 80 77  1  0
 81 80  1  0
 82 81  2  0
 83 81  1  0
 84 82  1  0
 85 83  2  0
 86 85  1  0
 86 84  2  0
 87 86  1  0
 88 76  1  0
 77 89  1  1
 90 80  1  0
 91 80  1  0
 92 82  1  0
 93 83  1  0
 94 84  1  0
 95 85  1  0
 96 87  1  0
112103  1  0
114113  1  0
115114  1  0
116115  2  0
117114  1  0
118117  1  0
119113  1  0
114120  1  6
121117  1  0
122117  1  0
123115  1  0
124123  1  0
125124  1  0
126125  2  0
127124  1  0
128127  1  0
129127  1  0
130128  1  0
131123  1  0
124132  1  1
127133  1  1
134128  1  0
135128  1  0
136129  1  0
137129  1  0
138129  1  0
139130  1  0
140130  1  0
141130  1  0
142125  1  0
143142  1  0
144143  1  0
145144  2  0
146143  1  0
147146  1  0
148147  1  0
149148  1  0
150149  1  0
151150  1  0
152150  2  0
153142  1  0
143154  1  6
155146  1  0
156146  1  0
157147  1  0
158147  1  0
159148  1  0
160148  1  0
161149  1  0
162151  1  0
163151  1  0
164152  1  0
165152  1  0
166144  1  0
167166  1  0
168167  1  0
169168  2  0
170167  1  0
171170  1  0
172166  1  0
167173  1  1
174170  1  0
175170  1  0
176168  1  0
177176  1  0
178177  1  0
179178  2  0
180177  1  0
181180  1  0
182181  2  0
183181  1  0
184182  1  0
185183  2  0
186185  1  0
186184  2  0
187186  1  0
188176  1  0
177189  1  6
190180  1  0
191180  1  0
192182  1  0
193183  1  0
194184  1  0
195185  1  0
196187  1  0
197178  1  0
198197  1  0
199198  1  0
200199  2  0
201198  1  0
202197  1  0
198203  1  6
204201  1  0
205201  1  0
206201  1  0
  2210  1  6
  3211  1  1
  4212  1  0
  5213  1  0
  6214  1  0
  7215  1  0
  9216  1  0
 19217  1  0
 44218  1  0
 45219  1  0
 59220  1  0
 60221  1  0
 99222  1  0
100223  1  0
M  CHG  3  43   1 103   1 152   1
M  END
$$$$
BP70
     RDKit          3D

223228  0  0  0  0  0  0  0  0999 V2000
   -4.0380    3.8846   -1.6993 C   0  0  2  0  0  0  0  0  0  0  0  0
   -2.8670    4.5878   -1.0166 C   0  0  1  0  0  0  0  0  0  0  0  0
   -2.1458    3.6159   -0.1381 C   0  0  1  0  0  0  0  0  0  0  0  0
   -0.7888    4.0521    0.2634 C   0  0  0  0  0  0  0  0  0  0  0  0
   -0.1564    5.2208   -0.3701 C   0  0  0  0  0  0  0  0  0  0  0  0
   -0.6661    5.6479   -1.6910 C   0  0  0  0  0  0  0  0  0  0  0  0
   -2.0868    5.3495   -2.0030 C   0  0  0  0  0  0  0  0  0  0  0  0
   -2.2379    4.9096   -3.4574 C   0  0  2  0  0  0  0  0  0  0  0  0
    1.3553    4.8527   -0.5941 C   0  0  0  0  0  0  0  0  0  0  0  0
   -3.0639    3.3858    1.0830 C   0  0  1  0  0  0  0  0  0  0  0  0
   -3.7394    2.9186   -2.1106 H   0  0  0  0  0  0  0  0  0  0  0  0
   -4.5038    4.5884   -2.4017 H   0  0  0  0  0  0  0  0  0  0  0  0
   -4.7635    3.6652   -0.8614 H   0  0  0  0  0  0  0  0  0  0  0  0
   -0.8482    4.2815    1.3751 H   0  0  0  0  0  0  0  0  0  0  0  0
    0.0169    5.2910   -2.5051 H   0  0  0  0  0  0  0  0  0  0  0  0
   -2.5779    5.7216   -4.1255 H   0  0  0  0  0  0  0  0  0  0  0  0
   -2.9546    4.0779   -3.5503 H   0  0  0  0  0  0  0  0  0  0  0  0
   -2.4793    3.7274    1.9714 H   0  0  0  0  0  0  0  0  0  0  0  0
    1.9289    6.0665   -0.9874 O   0  0  0  0  0  0  0  0  0  0  0  0
   -3.9552    4.0070    1.0229 H   0  0  0  0  0  0  0  0  0  0  0  0
    1.9200    4.3386    0.5868 N   0  0  0  0  0  0  0  0  0  0  0  0
    3.0119    3.3659    0.4100 C   0  0  2  0  0  0  0  0  0  0  0  0
    3.1852    2.6869    1.7245 C   0  0  0  0  0  0  0  0  0  0  0  0
    2.8233    3.3155    2.7275 O   0  0  0  0  0  0  0  0  0  0  0  0
    4.2277    3.8939   -0.2163 C   0  0  0  0  0  0  0  0  0  0  0  0
    4.9043    4.9930    0.4810 C   0  0  0  0  0  0  0  0  0  0  0  0
    4.7405    6.3269    0.3843 N   0  0  0  0  0  0  0  0  0  0  0  0
    5.9157    4.8085    1.4333 C   0  0  0  0  0  0  0  0  0  0  0  0
    5.5788    6.9682    1.2072 C   0  0  0  0  0  0  0  0  0  0  0  0
    6.3041    6.0455    1.8547 N   0  0  0  0  0  0  0  0  0  0  0  0
    2.3216    5.0896    1.1791 H   0  0  0  0  0  0  0  0  0  0  0  0
    2.5775    2.5908   -0.2584 H   0  0  0  0  0  0  0  0  0  0  0  0
    3.9742    4.1607   -1.2822 H   0  0  0  0  0  0  0  0  0  0  0  0
    4.9765    3.0517   -0.3286 H   0  0  0  0  0  0  0  0  0  0  0  0
    6.2919    3.8466    1.7465 H   0  0  0  0  0  0  0  0  0  0  0  0
    5.6915    8.0230    1.3569 H   0  0  0  0  0  0  0  0  0  0  0  0
    7.0619    6.1413    2.5702 H   0  0  0  0  0  0  0  0  0  0  0  0
    3.7182    1.3862    1.9203 N   0  0  0  0  0  0  0  0  0  0  0  0
    3.5125    0.8339    3.2584 C   0  0  1  0  0  0  0  0  0  0  0  0
    1.9354    0.9658    3.3881 C   0  0  2  0  0  0  0  0  0  0  0  0
    1.3037    0.3578    2.2097 C   0  0  2  0  0  0  0  0  0  0  0  0
   -0.2114    0.5109    2.1358 C   0  0  1  0  0  0  0  0  0  0  0  0
   -0.5809   -0.2535    0.9415 N   0  0  2  0  0  0  0  0  0  0  0  0
    3.8960   -0.4724    3.6621 C   0  0  0  0  0  0  0  0  0  0  0  0
    5.2802   -0.6905    3.3845 O   0  0  0  0  0  0  0  0  0  0  0  0
    4.1902    0.9567    1.1452 H   0  0  0  0  0  0  0  0  0  0  0  0
    3.7815    1.6923    3.9583 H   0  0  0  0  0  0  0  0  0  0  0  0
    1.5844    1.9132    3.6939 H   0  0  0  0  0  0  0  0  0  0  0  0
    1.7498    0.2709    4.2679 H   0  0  0  0  0  0  0  0  0  0  0  0
    1.4807   -0.6996    2.0172 H   0  0  0  0  0  0  0  0  0  0  0  0
    1.6333    0.8475    1.2415 H   0  0  0  0  0  0  0  0  0  0  0  0
   -0.6778    0.2117    3.0412 H   0  0  0  0  0  0  0  0  0  0  0  0
   -0.4680    1.5708    1.8458 H   0  0  0  0  0  0  0  0  0  0  0  0
   -1.2130   -1.0709    1.2295 H   0  0  0  0  0  0  0  0  0  0  0  0
    0.3074   -0.6823    0.4789 H   0  0  0  0  0  0  0  0  0  0  0  0
   -1.0564    0.3583    0.2067 H   0  0  0  0  0  0  0  0  0  0  0  0
    3.0961   -1.6164    3.2966 N   0  0  0  0  0  0  0  0  0  0  0  0
    3.3704   -2.8189    4.0017 C   0  0  2  0  0  0  0  0  0  0  0  0
    2.4939   -3.9713    3.5694 C   0  0  0  0  0  0  0  0  0  0  0  0
    2.7092   -4.2468    2.2100 O   0  0  0  0  0  0  0  0  0  0  0  0
    3.6592   -2.7645    5.4405 C   0  0  2  0  0  0  0  0  0  0  0  0
    2.7045   -2.2638    6.4249 C   0  0  1  0  0  0  0  0  0  0  0  0
    3.3225   -2.2984    7.8476 C   0  0  1  0  0  0  0  0  0  0  0  0
    2.3810   -1.8012    8.8873 C   0  0  2  0  0  0  0  0  0  0  0  0
    3.4543   -1.8218    2.2979 H   0  0  0  0  0  0  0  0  0  0  0  0
    4.4023   -3.1567    3.5515 H   0  0  0  0  0  0  0  0  0  0  0  0
    4.6557   -2.2683    5.5807 H   0  0  0  0  0  0  0  0  0  0  0  0
    3.8971   -3.8404    5.7343 H   0  0  0  0  0  0  0  0  0  0  0  0
    2.3774   -1.2306    6.2652 H   0  0  0  0  0  0  0  0  0  0  0  0
    1.7683   -2.8547    6.5434 H   0  0  0  0  0  0  0  0  0  0  0  0
    3.5823   -3.3607    8.0297 H   0  0  0  0  0  0  0  0  0  0  0  0
    4.2803   -1.7475    7.8284 H   0  0  0  0  0  0  0  0  0  0  0  0
    2.2820   -0.7116    8.9391 H   0  0  0  0  0  0  0  0  0  0  0  0
    2.8376   -2.1025    9.8809 H   0  0  0  0  0  0  0  0  0  0  0  0
    1.4365   -2.3637    8.8551 H   0  0  0  0  0  0  0  0  0  0  0  0
    1.1608   -4.0175    4.0095 N   0  0  0  0  0  0  0  0  0  0  0  0
    0.1546   -3.2323    3.4509 C   0  0  2  0  0  0  0  0  0  0  0  0
   -0.9686   -3.0886    4.5331 C   0  0  0  0  0  0  0  0  0  0  0  0
   -1.0480   -3.8326    5.4826 O   0  0  0  0  0  0  0  0  0  0  0  0
   -0.6861   -4.0260    2.4250 C   0  0  0  0  0  0  0  0  0  0  0  0
   -0.0432   -4.6262    1.2958 C   0  0  0  0  0  0  0  0  0  0  0  0
    0.3112   -5.9864    1.4162 C   0  0  0  0  0  0  0  0  0  0  0  0
    0.2471   -4.0452    0.0828 C   0  0  0  0  0  0  0  0  0  0  0  0
    0.9022   -6.6965    0.4041 C   0  0  0  0  0  0  0  0  0  0  0  0
    0.8492   -4.7632   -0.9514 C   0  0  0  0  0  0  0  0  0  0  0  0
    1.1804   -6.0952   -0.8006 C   0  0  0  0  0  0  0  0  0  0  0  0
    1.7720   -6.8616   -1.7845 O   0  0  0  0  0  0  0  0  0  0  0  0
    0.7918   -4.9972    4.1525 H   0  0  0  0  0  0  0  0  0  0  0  0
    0.3375   -2.2234    3.1394 H   0  0  0  0  0  0  0  0  0  0  0  0
   -1.2994   -4.7872    2.9719 H   0  0  0  0  0  0  0  0  0  0  0  0
   -1.4776   -3.3133    2.0120 H   0  0  0  0  0  0  0  0  0  0  0  0
    0.1068   -6.5174    2.3485 H   0  0  0  0  0  0  0  0  0  0  0  0
   -0.0115   -2.9956   -0.0480 H   0  0  0  0  0  0  0  0  0  0  0  0
    1.1506   -7.7557    0.5685 H   0  0  0  0  0  0  0  0  0  0  0  0
    1.0757   -4.3264   -1.9068 H   0  0  0  0  0  0  0  0  0  0  0  0
    1.7323   -6.6796   -2.7762 H   0  0  0  0  0  0  0  0  0  0  0  0
   -1.9104   -2.0470    4.3798 N   0  0  0  0  0  0  0  0  0  0  0  0
   -3.0287   -1.6992    5.2083 C   0  0  2  0  0  0  0  0  0  0  0  0
   -3.9291   -0.6658    4.5465 C   0  0  0  0  0  0  0  0  0  0  0  0
   -3.1511    0.5350    4.3689 O   0  0  0  0  0  0  0  0  0  0  0  0
   -2.4740   -0.8772    6.4291 C   0  0  2  0  0  0  0  0  0  0  0  0
   -1.4924   -1.6160    7.2602 C   0  0  1  0  0  0  0  0  0  0  0  0
   -1.0938   -0.7385    8.4290 N   0  0  2  0  0  0  0  0  0  0  0  0
   -1.7808   -1.4891    3.5216 H   0  0  0  0  0  0  0  0  0  0  0  0
   -3.5508   -2.5108    5.6979 H   0  0  0  0  0  0  0  0  0  0  0  0
   -3.2809   -0.4923    7.0363 H   0  0  0  0  0  0  0  0  0  0  0  0
   -1.9171    0.0161    6.0066 H   0  0  0  0  0  0  0  0  0  0  0  0
   -1.8420   -2.5378    7.7086 H   0  0  0  0  0  0  0  0  0  0  0  0
   -0.4845   -1.6989    6.7425 H   0  0  0  0  0  0  0  0  0  0  0  0
   -1.1117   -1.3478    9.3154 H   0  0  0  0  0  0  0  0  0  0  0  0
   -1.8351    0.0318    8.5064 H   0  0  0  0  0  0  0  0  0  0  0  0
   -0.1434   -0.3247    8.2612 H   0  0  0  0  0  0  0  0  0  0  0  0
   -4.4098   -0.9756    3.2606 N   0  0  0  0  0  0  0  0  0  0  0  0
   -5.2335   -0.0130    2.6574 C   0  0  2  0  0  0  0  0  0  0  0  0
   -5.5125   -0.5544    1.2448 C   0  0  0  0  0  0  0  0  0  0  0  0
   -5.8908    0.2528    0.4190 O   0  0  0  0  0  0  0  0  0  0  0  0
   -4.7794    1.4068    2.4845 C   0  0  0  0  0  0  0  0  0  0  0  0
   -3.4310    1.6434    1.3336 S   0  0  0  0  0  0  0  0  0  0  0  0
   -3.7254   -1.4608    2.6427 H   0  0  0  0  0  0  0  0  0  0  0  0
   -6.2236   -0.0312    3.1536 H   0  0  0  0  0  0  0  0  0  0  0  0
   -5.6707    1.9579    1.9947 H   0  0  0  0  0  0  0  0  0  0  0  0
   -4.6964    1.9250    3.4486 H   0  0  0  0  0  0  0  0  0  0  0  0
   -5.3572   -1.9074    0.9008 N   0  0  0  0  0  0  0  0  0  0  0  0
   -5.4649   -2.3871   -0.5222 C   0  0  2  0  0  0  0  0  0  0  0  0
   -4.2101   -2.0009   -1.1523 C   0  0  0  0  0  0  0  0  0  0  0  0
   -3.4071   -1.4097   -0.2828 O   0  0  0  0  0  0  0  0  0  0  0  0
   -6.7570   -2.3893   -1.1143 C   0  0  2  0  0  0  0  0  0  0  0  0
   -6.8015   -2.8975   -2.5721 C   0  0  0  0  0  0  0  0  0  0  0  0
   -7.6979   -1.2175   -1.0371 C   0  0  0  0  0  0  0  0  0  0  0  0
   -6.3134   -4.2882   -2.7295 C   0  0  0  0  0  0  0  0  0  0  0  0
   -5.1633   -2.5404    1.6777 H   0  0  0  0  0  0  0  0  0  0  0  0
   -5.2504   -3.5323   -0.3014 H   0  0  0  0  0  0  0  0  0  0  0  0
   -7.3724   -3.2280   -0.5910 H   0  0  0  0  0  0  0  0  0  0  0  0
   -7.9078   -2.8454   -2.8538 H   0  0  0  0  0  0  0  0  0  0  0  0
   -6.3287   -2.1797   -3.2282 H   0  0  0  0  0  0  0  0  0  0  0  0
   -8.6287   -1.6090   -1.6100 H   0  0  0  0  0  0  0  0  0  0  0  0
   -7.4415   -0.3388   -1.6081 H   0  0  0  0  0  0  0  0  0  0  0  0
   -8.1204   -1.0762   -0.0327 H   0  0  0  0  0  0  0  0  0  0  0  0
   -7.0836   -4.8746   -3.3028 H   0  0  0  0  0  0  0  0  0  0  0  0
   -5.3560   -4.3895   -3.2651 H   0  0  0  0  0  0  0  0  0  0  0  0
   -6.1559   -4.7698   -1.7224 H   0  0  0  0  0  0  0  0  0  0  0  0
   -3.6203   -2.0748   -2.4014 N   0  0  0  0  0  0  0  0  0  0  0  0
   -2.1998   -1.6634   -2.4953 C   0  0  2  0  0  0  0  0  0  0  0  0
   -2.1641   -0.2948   -3.1190 C   0  0  0  0  0  0  0  0  0  0  0  0
   -3.1431    0.2976   -3.5643 O   0  0  0  0  0  0  0  0  0  0  0  0
   -1.4404   -2.6285   -3.4089 C   0  0  0  0  0  0  0  0  0  0  0  0
   -1.9530   -2.5706   -4.8020 C   0  0  0  0  0  0  0  0  0  0  0  0
   -1.2602   -3.5197   -5.7182 C   0  0  0  0  0  0  0  0  0  0  0  0
    0.1824   -3.4201   -5.7205 N   0  0  0  0  0  0  0  0  0  0  0  0
    0.9782   -4.1146   -6.6900 C   0  0  0  0  0  0  0  0  0  0  0  0
    2.3949   -3.9398   -6.5632 N   0  0  0  0  0  0  0  0  0  0  0  0
    0.4085   -4.8119   -7.5577 N   0  0  0  0  0  0  0  0  0  0  0  0
   -4.0981   -2.3834   -3.2127 H   0  0  0  0  0  0  0  0  0  0  0  0
   -1.6827   -1.5834   -1.5544 H   0  0  0  0  0  0  0  0  0  0  0  0
   -0.3749   -2.4504   -3.2975 H   0  0  0  0  0  0  0  0  0  0  0  0
   -1.6291   -3.6611   -2.9984 H   0  0  0  0  0  0  0  0  0  0  0  0
   -3.0445   -2.7810   -4.8664 H   0  0  0  0  0  0  0  0  0  0  0  0
   -1.7440   -1.5332   -5.2143 H   0  0  0  0  0  0  0  0  0  0  0  0
   -1.6035   -3.3466   -6.7640 H   0  0  0  0  0  0  0  0  0  0  0  0
   -1.4946   -4.5833   -5.4146 H   0  0  0  0  0  0  0  0  0  0  0  0
    0.6527   -2.8255   -5.0048 H   0  0  0  0  0  0  0  0  0  0  0  0
    2.8719   -4.3750   -5.7151 H   0  0  0  0  0  0  0  0  0  0  0  0
    2.8884   -3.4082   -7.2927 H   0  0  0  0  0  0  0  0  0  0  0  0
   -0.4762   -5.1086   -7.8786 H   0  0  0  0  0  0  0  0  0  0  0  0
    1.1944   -5.2800   -8.2364 H   0  0  0  0  0  0  0  0  0  0  0  0
   -0.9099    0.4405   -3.2284 N   0  0  0  0  0  0  0  0  0  0  0  0
   -1.0142    1.6780   -3.9741 C   0  0  2  0  0  0  0  0  0  0  0  0
   -0.2141    1.3020   -5.2665 C   0  0  0  0  0  0  0  0  0  0  0  0
   -0.6913    1.5947   -6.3773 O   0  0  0  0  0  0  0  0  0  0  0  0
   -0.1867    2.7938   -3.3506 C   0  0  0  0  0  0  0  0  0  0  0  0
   -0.6087    4.3619   -4.1279 S   0  0  0  0  0  0  0  0  0  0  0  0
   -0.1331    0.0225   -2.7747 H   0  0  0  0  0  0  0  0  0  0  0  0
   -1.9655    2.0164   -4.2777 H   0  0  0  0  0  0  0  0  0  0  0  0
    0.8837    2.5382   -3.4540 H   0  0  0  0  0  0  0  0  0  0  0  0
   -0.4148    2.8356   -2.2915 H   0  0  0  0  0  0  0  0  0  0  0  0
    1.0054    0.6593   -5.0254 N   0  0  0  0  0  0  0  0  0  0  0  0
    1.9225    0.1997   -6.0635 C   0  0  2  0  0  0  0  0  0  0  0  0
    3.1527   -0.3991   -5.5649 C   0  0  0  0  0  0  0  0  0  0  0  0
    3.8948   -1.0551   -6.3541 O   0  0  0  0  0  0  0  0  0  0  0  0
    2.3152    1.4319   -6.9206 C   0  0  0  0  0  0  0  0  0  0  0  0
    3.2305    0.9770   -7.9759 C   0  0  0  0  0  0  0  0  0  0  0  0
    4.6062    1.1255   -7.7735 C   0  0  0  0  0  0  0  0  0  0  0  0
    2.7473    0.4142   -9.1470 C   0  0  0  0  0  0  0  0  0  0  0  0
    5.4612    0.6854   -8.7948 C   0  0  0  0  0  0  0  0  0  0  0  0
    3.5701   -0.0144  -10.1392 C   0  0  0  0  0  0  0  0  0  0  0  0
    4.9388    0.1250   -9.9573 C   0  0  0  0  0  0  0  0  0  0  0  0
    5.7519   -0.3189  -10.9919 O   0  0  0  0  0  0  0  0  0  0  0  0
    1.2984    0.4782   -4.0497 H   0  0  0  0  0  0  0  0  0  0  0  0
    1.4135   -0.4238   -6.8080 H   0  0  0  0  0  0  0  0  0  0  0  0
    1.3732    1.8188   -7.3474 H   0  0  0  0  0  0  0  0  0  0  0  0
    2.8203    2.1820   -6.2845 H   0  0  0  0  0  0  0  0  0  0  0  0
    4.9748    1.5667   -6.8661 H   0  0  0  0  0  0  0  0  0  0  0  0
    1.6676    0.3255   -9.2449 H   0  0  0  0  0  0  0  0  0  0  0  0
    6.5343    0.7872   -8.6630 H   0  0  0  0  0  0  0  0  0  0  0  0
    3.1667   -0.4669  -11.0563 H   0  0  0  0  0  0  0  0  0  0  0  0
    6.7215   -0.0567  -11.0778 H   0  0  0  0  0  0  0  0  0  0  0  0
    3.6295   -0.3126   -4.2202 N   0  0  0  0  0  0  0  0  0  0  0  0
    4.8706   -0.9325   -3.7753 C   0  0  2  0  0  0  0  0  0  0  0  0
    4.6635   -1.8134   -2.6053 C   0  0  0  0  0  0  0  0  0  0  0  0
    5.6594   -2.4380   -2.0924 O   0  0  0  0  0  0  0  0  0  0  0  0
    5.8988    0.1320   -3.4095 C   0  0  0  0  0  0  0  0  0  0  0  0
    3.1108    0.2089   -3.4698 H   0  0  0  0  0  0  0  0  0  0  0  0
    5.3114   -1.5425   -4.5881 H   0  0  0  0  0  0  0  0  0  0  0  0
    5.3802    1.0231   -3.0733 H   0  0  0  0  0  0  0  0  0  0  0  0
    6.5938    0.2803   -4.2516 H   0  0  0  0  0  0  0  0  0  0  0  0
    6.4773   -0.2556   -2.5435 H   0  0  0  0  0  0  0  0  0  0  0  0
    3.4175   -2.0333   -1.9795 N   0  0  0  0  0  0  0  0  0  0  0  0
    3.0480   -1.2602   -1.3629 H   0  0  0  0  0  0  0  0  0  0  0  0
    2.8536   -2.8917   -2.0823 H   0  0  0  0  0  0  0  0  0  0  0  0
   -3.3076    5.3474   -0.2745 H   0  0  0  0  0  0  0  0  0  0  0  0
   -2.0671    2.6367   -0.6856 H   0  0  0  0  0  0  0  0  0  0  0  0
   -0.0501    3.1825    0.1441 H   0  0  0  0  0  0  0  0  0  0  0  0
   -0.1235    6.0974    0.3266 H   0  0  0  0  0  0  0  0  0  0  0  0
   -0.4902    6.7837   -1.7556 H   0  0  0  0  0  0  0  0  0  0  0  0
   -2.5993    6.3925   -2.0328 H   0  0  0  0  0  0  0  0  0  0  0  0
    1.4113    4.1458   -1.4277 H   0  0  0  0  0  0  0  0  0  0  0  0
    1.5194    6.4333   -1.7901 H   0  0  0  0  0  0  0  0  0  0  0  0
    3.9728   -0.4586    4.8269 H   0  0  0  0  0  0  0  0  0  0  0  0
    5.3366   -0.9220    2.4041 H   0  0  0  0  0  0  0  0  0  0  0  0
    3.0007   -4.8664    4.0678 H   0  0  0  0  0  0  0  0  0  0  0  0
    2.6023   -3.4956    1.6213 H   0  0  0  0  0  0  0  0  0  0  0  0
   -4.7362   -0.3925    5.2282 H   0  0  0  0  0  0  0  0  0  0  0  0
   -3.3052    1.1271    5.1546 H   0  0  0  0  0  0  0  0  0  0  0  0
  1  2  1  0
  1 11  1  6
  1 12  1  0
  1 13  1  0
  2  3  1  0
  2  7  1  0
  3  4  1  0
  3 10  1  0
  4  5  1  0
  4 14  1  0
  5  6  1  0
  5  9  1  0
  6  7  1  0
  6 15  1  0
  7  8  1  0
  8 16  1  6
  8 17  1  0
  8171  1  0
  9 19  1  0
  9 21  1  0
 10 18  1  1
 10 20  1  0
 10118  1  0
 23 38  1  0
 38 39  1  0
 38 46  1  0
 39 40  1  0
 39 44  1  0
 39 47  1  1
 40 41  1  0
 40 48  1  1
 40 49  1  0
 41 42  1  0
 41 50  1  6
 41 51  1  0
 42 43  1  0
 42 52  1  1
 42 53  1  0
 43 54  1  1
 43 55  1  0
 44 45  1  0
 44 57  1  0
 57 58  1  0
 57 65  1  0
 58 59  1  0
 58 61  1  0
 58 66  1  6
 59 60  1  0
 59 76  1  0
 61 62  1  0
 61 67  1  6
 61 68  1  0
 62 63  1  0
 62 69  1  6
 62 70  1  0
 63 64  1  0
 63 71  1  1
 63 72  1  0
 64 73  1  1
 64 74  1  0
 64 75  1  0
 78 97  1  0
 97 98  1  0
 97104  1  0
 98 99  1  0
 98101  1  0
 98105  1  1
 99100  1  0
 99113  1  0
101102  1  0
101106  1  1
101107  1  0
102103  1  0
102108  1  1
102109  1  0
103110  1  1
103111  1  0
199207  1  0
207208  1  0
207209  1  0
 22 21  1  0
 23 22  1  0
 24 23  2  0
 25 22  1  0
 26 25  1  0
 27 26  1  0
 28 26  2  0
 29 27  2  0
 30 28  1  0
 30 29  1  0
 31 21  1  0
 22 32  1  6
 33 25  1  0
 34 25  1  0
 35 28  1  0
 36 29  1  0
 37 30  1  0
 56 43  1  0
 77 76  1  0
 78 77  1  0
 79 78  2  0
 80 77  1  0
 81 80  1  0
 82 81  2  0
 83 81  1  0
 84 82  1  0
 85 83  2  0
 86 85  1  0
 86 84  2  0
 87 86  1  0
 88 76  1  0
 77 89  1  6
 90 80  1  0
 91 80  1  0
 92 82  1  0
 93 83  1  0
 94 84  1  0
 95 85  1  0
 96 87  1  0
112103  1  0
114113  1  0
115114  1  0
116115  2  0
117114  1  0
118117  1  0
119113  1  0
114120  1  1
121117  1  0
122117  1  0
123115  1  0
124123  1  0
125124  1  0
126125  2  0
127124  1  0
128127  1  0
129127  1  0
130128  1  0
131123  1  0
124132  1  1
127133  1  1
134128  1  0
135128  1  0
136129  1  0
137129  1  0
138129  1  0
139130  1  0
140130  1  0
141130  1  0
142125  1  0
143142  1  0
144143  1  0
145144  2  0
146143  1  0
147146  1  0
148147  1  0
149148  1  0
150149  1  0
151150  1  0
152150  2  0
153142  1  0
143154  1  1
155146  1  0
156146  1  0
157147  1  0
158147  1  0
159148  1  0
160148  1  0
161149  1  0
162151  1  0
163151  1  0
164152  1  0
165152  1  0
166144  1  0
167166  1  0
168167  1  0
169168  2  0
170167  1  0
171170  1  0
172166  1  0
167173  1  6
174170  1  0
175170  1  0
176168  1  0
177176  1  0
178177  1  0
179178  2  0
180177  1  0
181180  1  0
182181  2  0
183181  1  0
184182  1  0
185183  2  0
186185  1  0
186184  2  0
187186  1  0
188176  1  0
177189  1  6
190180  1  0
191180  1  0
192182  1  0
193183  1  0
194184  1  0
195185  1  0
196187  1  0
197178  1  0
198197  1  0
199198  1  0
200199  2  0
201198  1  0
202197  1  0
198203  1  6
204201  1  0
205201  1  0
206201  1  0
  2210  1  1
  3211  1  6
  4212  1  0
  5213  1  0
  6214  1  0
  7215  1  0
  9216  1  0
 19217  1  0
 44218  1  0
 45219  1  0
 59220  1  0
 60221  1  0
 99222  1  0
100223  1  0
M  CHG  3  43   1 103   1 152   1
M  END
$$$$
BP70
     RDKit          3D

223228  0  0  0  0  0  0  0  0999 V2000
   -2.9093    0.4063    4.3191 C   0  0  2  0  0  0  0  0  0  0  0  0
   -1.5979    0.1341    3.5758 C   0  0  1  0  0  0  0  0  0  0  0  0
   -0.9287    1.4646    3.3651 C   0  0  1  0  0  0  0  0  0  0  0  0
    0.5166    1.3658    3.7496 C   0  0  0  0  0  0  0  0  0  0  0  0
    1.1950    0.1555    3.1571 C   0  0  0  0  0  0  0  0  0  0  0  0
    0.6164   -1.0607    3.7769 C   0  0  0  0  0  0  0  0  0  0  0  0
   -0.7465   -0.8230    4.3676 C   0  0  0  0  0  0  0  0  0  0  0  0
   -1.4442   -2.0362    4.8149 C   0  0  2  0  0  0  0  0  0  0  0  0
    2.7158    0.3307    3.3565 C   0  0  0  0  0  0  0  0  0  0  0  0
   -1.1521    2.0768    2.0254 C   0  0  1  0  0  0  0  0  0  0  0  0
   -2.7642    0.5369    5.4070 H   0  0  0  0  0  0  0  0  0  0  0  0
   -3.6376   -0.4094    4.1548 H   0  0  0  0  0  0  0  0  0  0  0  0
   -3.3904    1.3295    3.8821 H   0  0  0  0  0  0  0  0  0  0  0  0
    1.0743    2.3161    3.4977 H   0  0  0  0  0  0  0  0  0  0  0  0
    0.4861   -1.8112    2.9761 H   0  0  0  0  0  0  0  0  0  0  0  0
   -2.4545   -1.6895    5.2231 H   0  0  0  0  0  0  0  0  0  0  0  0
   -0.9175   -2.3904    5.7638 H   0  0  0  0  0  0  0  0  0  0  0  0
   -1.7877    3.0119    2.0983 H   0  0  0  0  0  0  0  0  0  0  0  0
    3.1048   -0.9326    3.9162 O   0  0  0  0  0  0  0  0  0  0  0  0
   -0.2040    2.4540    1.5717 H   0  0  0  0  0  0  0  0  0  0  0  0
    2.9069    1.3797    4.2518 N   0  0  0  0  0  0  0  0  0  0  0  0
    4.0529    2.1494    4.3857 C   0  0  2  0  0  0  0  0  0  0  0  0
    4.2829    3.1896    3.3328 C   0  0  0  0  0  0  0  0  0  0  0  0
    5.1833    4.0527    3.4131 O   0  0  0  0  0  0  0  0  0  0  0  0
    5.3292    1.3793    4.6710 C   0  0  0  0  0  0  0  0  0  0  0  0
    6.5220    2.2476    4.8165 C   0  0  0  0  0  0  0  0  0  0  0  0
    7.4125    2.6885    3.9145 N   0  0  0  0  0  0  0  0  0  0  0  0
    6.9036    2.7718    6.0464 C   0  0  0  0  0  0  0  0  0  0  0  0
    8.3036    3.4538    4.5725 C   0  0  0  0  0  0  0  0  0  0  0  0
    8.0059    3.5159    5.8881 N   0  0  0  0  0  0  0  0  0  0  0  0
    2.5692    1.0667    5.2114 H   0  0  0  0  0  0  0  0  0  0  0  0
    3.9154    2.7818    5.3235 H   0  0  0  0  0  0  0  0  0  0  0  0
    5.4989    0.5975    3.8774 H   0  0  0  0  0  0  0  0  0  0  0  0
    5.2395    0.7850    5.6019 H   0  0  0  0  0  0  0  0  0  0  0  0
    6.4161    2.6254    6.9993 H   0  0  0  0  0  0  0  0  0  0  0  0
    9.1746    3.9887    4.1805 H   0  0  0  0  0  0  0  0  0  0  0  0
    8.5142    4.0322    6.6452 H   0  0  0  0  0  0  0  0  0  0  0  0
    3.5023    3.2869    2.1450 N   0  0  0  0  0  0  0  0  0  0  0  0
    3.6643    4.4129    1.1954 C   0  0  1  0  0  0  0  0  0  0  0  0
    4.6240    4.0444    0.0994 C   0  0  2  0  0  0  0  0  0  0  0  0
    4.2622    2.8771   -0.7423 C   0  0  2  0  0  0  0  0  0  0  0  0
    5.3730    2.6460   -1.7884 C   0  0  1  0  0  0  0  0  0  0  0  0
    4.9757    1.4828   -2.5971 N   0  0  2  0  0  0  0  0  0  0  0  0
    2.3077    4.8203    0.6816 C   0  0  0  0  0  0  0  0  0  0  0  0
    1.6913    3.8217   -0.0192 O   0  0  0  0  0  0  0  0  0  0  0  0
    2.8340    2.5563    1.9702 H   0  0  0  0  0  0  0  0  0  0  0  0
    4.1248    5.2935    1.6927 H   0  0  0  0  0  0  0  0  0  0  0  0
    5.6043    3.8346    0.5729 H   0  0  0  0  0  0  0  0  0  0  0  0
    4.7032    4.9331   -0.5563 H   0  0  0  0  0  0  0  0  0  0  0  0
    3.3724    3.1318   -1.3917 H   0  0  0  0  0  0  0  0  0  0  0  0
    4.1701    1.9198   -0.2262 H   0  0  0  0  0  0  0  0  0  0  0  0
    5.4608    3.5257   -2.4214 H   0  0  0  0  0  0  0  0  0  0  0  0
    6.3153    2.3881   -1.2645 H   0  0  0  0  0  0  0  0  0  0  0  0
    5.1143    1.7318   -3.6330 H   0  0  0  0  0  0  0  0  0  0  0  0
    3.9651    1.2251   -2.4287 H   0  0  0  0  0  0  0  0  0  0  0  0
    5.6043    0.6485   -2.3570 H   0  0  0  0  0  0  0  0  0  0  0  0
    2.3018    6.1223    0.1003 N   0  0  0  0  0  0  0  0  0  0  0  0
    1.0135    6.4204   -0.4728 C   0  0  2  0  0  0  0  0  0  0  0  0
    0.9710    5.9840   -1.9120 C   0  0  0  0  0  0  0  0  0  0  0  0
    1.9646    6.7208   -2.6158 O   0  0  0  0  0  0  0  0  0  0  0  0
    0.6290    7.8451   -0.2352 C   0  0  2  0  0  0  0  0  0  0  0  0
    0.5625    8.1014    1.2665 C   0  0  1  0  0  0  0  0  0  0  0  0
    0.1577    9.5248    1.5754 C   0  0  1  0  0  0  0  0  0  0  0  0
   -1.2051    9.8508    1.0137 C   0  0  2  0  0  0  0  0  0  0  0  0
    3.0972    6.3770   -0.4864 H   0  0  0  0  0  0  0  0  0  0  0  0
    0.2237    5.7855    0.0460 H   0  0  0  0  0  0  0  0  0  0  0  0
   -0.3632    8.0295   -0.6967 H   0  0  0  0  0  0  0  0  0  0  0  0
    1.3264    8.5605   -0.6740 H   0  0  0  0  0  0  0  0  0  0  0  0
   -0.2111    7.4350    1.7416 H   0  0  0  0  0  0  0  0  0  0  0  0
    1.5196    7.8656    1.7524 H   0  0  0  0  0  0  0  0  0  0  0  0
    0.1273    9.6671    2.6723 H   0  0  0  0  0  0  0  0  0  0  0  0
    0.8755   10.2576    1.1552 H   0  0  0  0  0  0  0  0  0  0  0  0
   -1.7689    8.8763    0.9389 H   0  0  0  0  0  0  0  0  0  0  0  0
   -1.1698   10.2649   -0.0025 H   0  0  0  0  0  0  0  0  0  0  0  0
   -1.8112   10.4674    1.7234 H   0  0  0  0  0  0  0  0  0  0  0  0
   -0.2709    6.1520   -2.5602 N   0  0  0  0  0  0  0  0  0  0  0  0
   -1.3754    5.3560   -2.1589 C   0  0  2  0  0  0  0  0  0  0  0  0
   -1.3500    3.9428   -2.6058 C   0  0  0  0  0  0  0  0  0  0  0  0
   -2.2188    3.1243   -2.2454 O   0  0  0  0  0  0  0  0  0  0  0  0
   -2.6261    5.9931   -2.7789 C   0  0  0  0  0  0  0  0  0  0  0  0
   -3.8726    5.2674   -2.4669 C   0  0  0  0  0  0  0  0  0  0  0  0
   -4.3910    4.2822   -3.3195 C   0  0  0  0  0  0  0  0  0  0  0  0
   -4.6143    5.5095   -1.3107 C   0  0  0  0  0  0  0  0  0  0  0  0
   -5.5536    3.6027   -3.0311 C   0  0  0  0  0  0  0  0  0  0  0  0
   -5.7772    4.8208   -1.0353 C   0  0  0  0  0  0  0  0  0  0  0  0
   -6.2660    3.8514   -1.8974 C   0  0  0  0  0  0  0  0  0  0  0  0
   -7.4305    3.1390   -1.6580 O   0  0  0  0  0  0  0  0  0  0  0  0
   -0.5755    7.1415   -2.6710 H   0  0  0  0  0  0  0  0  0  0  0  0
   -1.5511    5.4119   -1.0539 H   0  0  0  0  0  0  0  0  0  0  0  0
   -2.4743    5.9104   -3.8871 H   0  0  0  0  0  0  0  0  0  0  0  0
   -2.6992    7.0689   -2.5017 H   0  0  0  0  0  0  0  0  0  0  0  0
   -3.8688    4.0426   -4.2350 H   0  0  0  0  0  0  0  0  0  0  0  0
   -4.3007    6.2480   -0.5895 H   0  0  0  0  0  0  0  0  0  0  0  0
   -5.9083    2.8464   -3.7313 H   0  0  0  0  0  0  0  0  0  0  0  0
   -6.3609    5.0011   -0.1375 H   0  0  0  0  0  0  0  0  0  0  0  0
   -8.0153    3.2613   -0.8547 H   0  0  0  0  0  0  0  0  0  0  0  0
   -0.3609    3.3976   -3.4677 N   0  0  0  0  0  0  0  0  0  0  0  0
   -0.3031    2.0590   -3.9683 C   0  0  2  0  0  0  0  0  0  0  0  0
    0.4348    1.0962   -3.0202 C   0  0  0  0  0  0  0  0  0  0  0  0
    0.4794   -0.0970   -3.7876 O   0  0  0  0  0  0  0  0  0  0  0  0
    0.1158    1.9257   -5.3879 C   0  0  2  0  0  0  0  0  0  0  0  0
   -0.8783    2.6862   -6.2551 C   0  0  1  0  0  0  0  0  0  0  0  0
   -0.4171    2.5131   -7.6414 N   0  0  2  0  0  0  0  0  0  0  0  0
    0.3657    4.0577   -3.7656 H   0  0  0  0  0  0  0  0  0  0  0  0
   -1.3865    1.6801   -3.8595 H   0  0  0  0  0  0  0  0  0  0  0  0
    0.1068    0.8503   -5.6457 H   0  0  0  0  0  0  0  0  0  0  0  0
    1.1386    2.3036   -5.5126 H   0  0  0  0  0  0  0  0  0  0  0  0
   -1.8550    2.1819   -6.2121 H   0  0  0  0  0  0  0  0  0  0  0  0
   -0.9217    3.7473   -5.9965 H   0  0  0  0  0  0  0  0  0  0  0  0
   -1.2611    2.5644   -8.3096 H   0  0  0  0  0  0  0  0  0  0  0  0
    0.0697    1.5673   -7.7353 H   0  0  0  0  0  0  0  0  0  0  0  0
    0.2720    3.2867   -7.8904 H   0  0  0  0  0  0  0  0  0  0  0  0
   -0.3867    0.8144   -1.8815 N   0  0  0  0  0  0  0  0  0  0  0  0
    0.1807    0.0910   -0.8239 C   0  0  2  0  0  0  0  0  0  0  0  0
    0.6104   -1.2825   -1.2005 C   0  0  0  0  0  0  0  0  0  0  0  0
    0.3898   -1.8727   -2.2556 O   0  0  0  0  0  0  0  0  0  0  0  0
   -1.0191   -0.2848    0.1287 C   0  0  0  0  0  0  0  0  0  0  0  0
   -1.9199    1.0483    0.7863 S   0  0  0  0  0  0  0  0  0  0  0  0
   -1.3480    0.4949   -2.1457 H   0  0  0  0  0  0  0  0  0  0  0  0
    0.9462    0.6247   -0.2452 H   0  0  0  0  0  0  0  0  0  0  0  0
   -0.5545   -1.0155    0.8233 H   0  0  0  0  0  0  0  0  0  0  0  0
   -1.6654   -0.8744   -0.5614 H   0  0  0  0  0  0  0  0  0  0  0  0
    1.3944   -2.0981   -0.2644 N   0  0  0  0  0  0  0  0  0  0  0  0
    1.7327   -3.4774   -0.6371 C   0  0  2  0  0  0  0  0  0  0  0  0
    1.0404   -4.4097    0.3285 C   0  0  0  0  0  0  0  0  0  0  0  0
    0.6395   -3.9994    1.4167 O   0  0  0  0  0  0  0  0  0  0  0  0
    3.2223   -3.7266   -0.6174 C   0  0  2  0  0  0  0  0  0  0  0  0
    3.8182   -3.4898    0.7535 C   0  0  0  0  0  0  0  0  0  0  0  0
    3.9295   -2.9309   -1.6852 C   0  0  0  0  0  0  0  0  0  0  0  0
    5.3132   -3.7728    0.6490 C   0  0  0  0  0  0  0  0  0  0  0  0
    1.6450   -1.6241    0.5834 H   0  0  0  0  0  0  0  0  0  0  0  0
    1.3618   -3.7319   -1.6387 H   0  0  0  0  0  0  0  0  0  0  0  0
    3.3614   -4.8016   -0.8401 H   0  0  0  0  0  0  0  0  0  0  0  0
    3.6734   -2.4493    1.1054 H   0  0  0  0  0  0  0  0  0  0  0  0
    3.4062   -4.2415    1.4390 H   0  0  0  0  0  0  0  0  0  0  0  0
    4.6370   -3.5932   -2.2664 H   0  0  0  0  0  0  0  0  0  0  0  0
    4.6164   -2.1658   -1.2346 H   0  0  0  0  0  0  0  0  0  0  0  0
    3.2363   -2.4993   -2.4304 H   0  0  0  0  0  0  0  0  0  0  0  0
    5.8802   -2.8994    0.3231 H   0  0  0  0  0  0  0  0  0  0  0  0
    5.4887   -4.6098   -0.0592 H   0  0  0  0  0  0  0  0  0  0  0  0
    5.6876   -4.1556    1.6427 H   0  0  0  0  0  0  0  0  0  0  0  0
    0.8161   -5.7840    0.0387 N   0  0  0  0  0  0  0  0  0  0  0  0
    0.0582   -6.6670    0.9452 C   0  0  2  0  0  0  0  0  0  0  0  0
   -1.1873   -6.0927    1.4473 C   0  0  0  0  0  0  0  0  0  0  0  0
   -1.8722   -6.5579    2.3938 O   0  0  0  0  0  0  0  0  0  0  0  0
    0.9211   -7.4238    1.8587 C   0  0  0  0  0  0  0  0  0  0  0  0
    0.2311   -8.3591    2.8148 C   0  0  0  0  0  0  0  0  0  0  0  0
   -0.5828   -9.3995    2.0794 C   0  0  0  0  0  0  0  0  0  0  0  0
   -1.2657  -10.2912    3.0028 N   0  0  0  0  0  0  0  0  0  0  0  0
   -2.0980  -11.3297    2.4960 C   0  0  0  0  0  0  0  0  0  0  0  0
   -2.7919  -12.2385    3.3528 N   0  0  0  0  0  0  0  0  0  0  0  0
   -2.2155  -11.4389    1.2345 N   0  0  0  0  0  0  0  0  0  0  0  0
    1.2268   -6.1052   -0.8442 H   0  0  0  0  0  0  0  0  0  0  0  0
   -0.3389   -7.4473    0.1808 H   0  0  0  0  0  0  0  0  0  0  0  0
    1.5469   -6.7485    2.5235 H   0  0  0  0  0  0  0  0  0  0  0  0
    1.6037   -8.0681    1.2461 H   0  0  0  0  0  0  0  0  0  0  0  0
    1.0526   -8.8680    3.4068 H   0  0  0  0  0  0  0  0  0  0  0  0
   -0.4250   -7.8061    3.4940 H   0  0  0  0  0  0  0  0  0  0  0  0
   -1.2647   -8.9848    1.3468 H   0  0  0  0  0  0  0  0  0  0  0  0
    0.0987  -10.0871    1.4885 H   0  0  0  0  0  0  0  0  0  0  0  0
   -1.1713  -10.2050    4.0378 H   0  0  0  0  0  0  0  0  0  0  0  0
   -3.4478  -11.8695    4.0936 H   0  0  0  0  0  0  0  0  0  0  0  0
   -2.6459  -13.2795    3.2425 H   0  0  0  0  0  0  0  0  0  0  0  0
   -1.7375  -10.8138    0.5514 H   0  0  0  0  0  0  0  0  0  0  0  0
   -2.8220  -12.1895    0.8116 H   0  0  0  0  0  0  0  0  0  0  0  0
   -1.8190   -4.8955    0.9063 N   0  0  0  0  0  0  0  0  0  0  0  0
   -3.0231   -4.3529    1.4994 C   0  0  2  0  0  0  0  0  0  0  0  0
   -3.9818   -4.0464    0.4283 C   0  0  0  0  0  0  0  0  0  0  0  0
   -5.1387   -3.6744    0.7762 O   0  0  0  0  0  0  0  0  0  0  0  0
   -2.7382   -3.1157    2.3528 C   0  0  0  0  0  0  0  0  0  0  0  0
   -1.6482   -3.4045    3.7161 S   0  0  0  0  0  0  0  0  0  0  0  0
   -1.3790   -4.5187    0.0829 H   0  0  0  0  0  0  0  0  0  0  0  0
   -3.4974   -5.0633    2.2066 H   0  0  0  0  0  0  0  0  0  0  0  0
   -2.3707   -2.3663    1.5944 H   0  0  0  0  0  0  0  0  0  0  0  0
   -3.7001   -2.7211    2.7305 H   0  0  0  0  0  0  0  0  0  0  0  0
   -3.7301   -4.1267   -0.9600 N   0  0  0  0  0  0  0  0  0  0  0  0
   -4.7574   -3.7991   -1.9258 C   0  0  2  0  0  0  0  0  0  0  0  0
   -4.7924   -4.8451   -2.9619 C   0  0  0  0  0  0  0  0  0  0  0  0
   -5.6780   -4.7202   -3.8762 O   0  0  0  0  0  0  0  0  0  0  0  0
   -4.4145   -2.4393   -2.5102 C   0  0  0  0  0  0  0  0  0  0  0  0
   -5.3478   -1.9476   -3.5150 C   0  0  0  0  0  0  0  0  0  0  0  0
   -6.4732   -1.2005   -3.2089 C   0  0  0  0  0  0  0  0  0  0  0  0
   -5.1159   -2.2196   -4.8685 C   0  0  0  0  0  0  0  0  0  0  0  0
   -7.3278   -0.7450   -4.1869 C   0  0  0  0  0  0  0  0  0  0  0  0
   -5.9715   -1.7642   -5.8550 C   0  0  0  0  0  0  0  0  0  0  0  0
   -7.1050   -1.0107   -5.5310 C   0  0  0  0  0  0  0  0  0  0  0  0
   -7.9442   -0.5665   -6.5372 O   0  0  0  0  0  0  0  0  0  0  0  0
   -2.7994   -4.4188   -1.3103 H   0  0  0  0  0  0  0  0  0  0  0  0
   -5.7061   -3.6725   -1.3826 H   0  0  0  0  0  0  0  0  0  0  0  0
   -3.3782   -2.3780   -2.8447 H   0  0  0  0  0  0  0  0  0  0  0  0
   -4.4792   -1.7294   -1.6404 H   0  0  0  0  0  0  0  0  0  0  0  0
   -6.7015   -0.9623   -2.1566 H   0  0  0  0  0  0  0  0  0  0  0  0
   -4.2615   -2.7938   -5.1955 H   0  0  0  0  0  0  0  0  0  0  0  0
   -8.2075   -0.1592   -3.9666 H   0  0  0  0  0  0  0  0  0  0  0  0
   -5.7686   -1.9924   -6.8981 H   0  0  0  0  0  0  0  0  0  0  0  0
   -8.1111   -1.1099   -7.3641 H   0  0  0  0  0  0  0  0  0  0  0  0
   -3.9534   -5.9581   -3.0463 N   0  0  0  0  0  0  0  0  0  0  0  0
   -4.0209   -6.9699   -4.0957 C   0  0  2  0  0  0  0  0  0  0  0  0
   -4.1308   -8.3271   -3.5336 C   0  0  0  0  0  0  0  0  0  0  0  0
   -4.1600   -8.6041   -2.3123 O   0  0  0  0  0  0  0  0  0  0  0  0
   -2.7141   -6.8775   -4.8901 C   0  0  0  0  0  0  0  0  0  0  0  0
   -3.2261   -6.0975   -2.3265 H   0  0  0  0  0  0  0  0  0  0  0  0
   -4.8347   -6.7381   -4.8098 H   0  0  0  0  0  0  0  0  0  0  0  0
   -1.9380   -6.3955   -4.2629 H   0  0  0  0  0  0  0  0  0  0  0  0
   -2.8645   -6.3136   -5.8309 H   0  0  0  0  0  0  0  0  0  0  0  0
   -2.3801   -7.9004   -5.1223 H   0  0  0  0  0  0  0  0  0  0  0  0
   -4.2111   -9.4146   -4.4453 N   0  0  0  0  0  0  0  0  0  0  0  0
   -3.8813   -9.3586   -5.4160 H   0  0  0  0  0  0  0  0  0  0  0  0
   -4.6220  -10.3465   -4.1509 H   0  0  0  0  0  0  0  0  0  0  0  0
   -1.8865   -0.3457    2.6309 H   0  0  0  0  0  0  0  0  0  0  0  0
   -1.3626    2.2122    4.1100 H   0  0  0  0  0  0  0  0  0  0  0  0
    0.5815    1.3336    4.8547 H   0  0  0  0  0  0  0  0  0  0  0  0
    1.0808    0.1813    2.0593 H   0  0  0  0  0  0  0  0  0  0  0  0
    1.2473   -1.4617    4.5998 H   0  0  0  0  0  0  0  0  0  0  0  0
   -0.5178   -0.2512    5.3449 H   0  0  0  0  0  0  0  0  0  0  0  0
    3.2674    0.3471    2.4024 H   0  0  0  0  0  0  0  0  0  0  0  0
    3.7144   -0.7903    4.6783 H   0  0  0  0  0  0  0  0  0  0  0  0
    1.7049    4.9869    1.6605 H   0  0  0  0  0  0  0  0  0  0  0  0
    0.7304    3.8561    0.0028 H   0  0  0  0  0  0  0  0  0  0  0  0
    1.3326    4.9586   -1.9532 H   0  0  0  0  0  0  0  0  0  0  0  0
    1.5309    7.5715   -2.9156 H   0  0  0  0  0  0  0  0  0  0  0  0
    1.3998    1.4915   -2.7467 H   0  0  0  0  0  0  0  0  0  0  0  0
    1.3314   -0.0995   -4.2954 H   0  0  0  0  0  0  0  0  0  0  0  0
  1  2  1  0
  1 11  1  1
  1 12  1  0
  1 13  1  0
  2  3  1  0
  2  7  1  0
  3  4  1  0
  3 10  1  0
  4  5  1  0
  4 14  1  0
  5  6  1  0
  5  9  1  0
  6  7  1  0
  6 15  1  0
  7  8  1  0
  8 16  1  1
  8 17  1  0
  8171  1  0
  9 19  1  0
  9 21  1  0
 10 18  1  1
 10 20  1  0
 10118  1  0
 23 38  1  0
 38 39  1  0
 38 46  1  0
 39 40  1  0
 39 44  1  0
 39 47  1  1
 40 41  1  0
 40 48  1  1
 40 49  1  0
 41 42  1  0
 41 50  1  6
 41 51  1  0
 42 43  1  0
 42 52  1  6
 42 53  1  0
 43 54  1  6
 43 55  1  0
 44 45  1  0
 44 57  1  0
 57 58  1  0
 57 65  1  0
 58 59  1  0
 58 61  1  0
 58 66  1  1
 59 60  1  0
 59 76  1  0
 61 62  1  0
 61 67  1  6
 61 68  1  0
 62 63  1  0
 62 69  1  1
 62 70  1  0
 63 64  1  0
 63 71  1  1
 63 72  1  0
 64 73  1  6
 64 74  1  0
 64 75  1  0
 78 97  1  0
 97 98  1  0
 97104  1  0
 98 99  1  0
 98101  1  0
 98105  1  6
 99100  1  0
 99113  1  0
101102  1  0
101106  1  6
101107  1  0
102103  1  0
102108  1  6
102109  1  0
103110  1  6
103111  1  0
199207  1  0
207208  1  0
207209  1  0
 22 21  1  0
 23 22  1  0
 24 23  2  0
 25 22  1  0
 26 25  1  0
 27 26  1  0
 28 26  2  0
 29 27  2  0
 30 28  1  0
 30 29  1  0
 31 21  1  0
 22 32  1  1
 33 25  1  0
 34 25  1  0
 35 28  1  0
 36 29  1  0
 37 30  1  0
 56 43  1  0
 77 76  1  0
 78 77  1  0
 79 78  2  0
 80 77  1  0
 81 80  1  0
 82 81  2  0
 83 81  1  0
 84 82  1  0
 85 83  2  0
 86 85  1  0
 86 84  2  0
 87 86  1  0
 88 76  1  0
 77 89  1  1
 90 80  1  0
 91 80  1  0
 92 82  1  0
 93 83  1  0
 94 84  1  0
 95 85  1  0
 96 87  1  0
112103  1  0
114113  1  0
115114  1  0
116115  2  0
117114  1  0
118117  1  0
119113  1  0
114120  1  1
121117  1  0
122117  1  0
123115  1  0
124123  1  0
125124  1  0
126125  2  0
127124  1  0
128127  1  0
129127  1  0
130128  1  0
131123  1  0
124132  1  6
127133  1  6
134128  1  0
135128  1  0
136129  1  0
137129  1  0
138129  1  0
139130  1  0
140130  1  0
141130  1  0
142125  1  0
143142  1  0
144143  1  0
145144  2  0
146143  1  0
147146  1  0
148147  1  0
149148  1  0
150149  1  0
151150  1  0
152150  2  0
153142  1  0
143154  1  6
155146  1  0
156146  1  0
157147  1  0
158147  1  0
159148  1  0
160148  1  0
161149  1  0
162151  1  0
163151  1  0
164152  1  0
165152  1  0
166144  1  0
167166  1  0
168167  1  0
169168  2  0
170167  1  0
171170  1  0
172166  1  0
167173  1  1
174170  1  0
175170  1  0
176168  1  0
177176  1  0
178177  1  0
179178  2  0
180177  1  0
181180  1  0
182181  2  0
183181  1  0
184182  1  0
185183  2  0
186185  1  0
186184  2  0
187186  1  0
188176  1  0
177189  1  1
190180  1  0
191180  1  0
192182  1  0
193183  1  0
194184  1  0
195185  1  0
196187  1  0
197178  1  0
198197  1  0
199198  1  0
200199  2  0
201198  1  0
202197  1  0
198203  1  6
204201  1  0
205201  1  0
206201  1  0
  2210  1  6
  3211  1  1
  4212  1  0
  5213  1  0
  6214  1  0
  7215  1  0
  9216  1  0
 19217  1  0
 44218  1  0
 45219  1  0
 59220  1  0
 60221  1  0
 99222  1  0
100223  1  0
M  CHG  3  43   1 103   1 152   1
M  END
$$$$
BP70
     RDKit          3D

223228  0  0  0  0  0  0  0  0999 V2000
    0.0478   -1.6280    3.5570 C   0  0  2  0  0  0  0  0  0  0  0  0
    0.0725   -0.2995    2.9405 C   0  0  1  0  0  0  0  0  0  0  0  0
    0.2016   -0.3175    1.4152 C   0  0  1  0  0  0  0  0  0  0  0  0
    0.8474    1.0555    1.1265 C   0  0  0  0  0  0  0  0  0  0  0  0
   -0.1458    2.1085    1.4674 C   0  0  0  0  0  0  0  0  0  0  0  0
   -1.3104    1.6495    2.2492 C   0  0  0  0  0  0  0  0  0  0  0  0
   -0.8944    0.6893    3.3963 C   0  0  0  0  0  0  0  0  0  0  0  0
   -1.9424    0.6057    4.4073 C   0  0  2  0  0  0  0  0  0  0  0  0
    0.6709    3.1640    2.2655 C   0  0  0  0  0  0  0  0  0  0  0  0
    1.0774   -1.4095    0.9306 C   0  0  1  0  0  0  0  0  0  0  0  0
    1.0632   -1.9647    3.9480 H   0  0  0  0  0  0  0  0  0  0  0  0
   -0.1974   -2.3960    2.8067 H   0  0  0  0  0  0  0  0  0  0  0  0
   -0.5913   -1.6978    4.4743 H   0  0  0  0  0  0  0  0  0  0  0  0
    1.6962    1.0988    1.8582 H   0  0  0  0  0  0  0  0  0  0  0  0
   -1.8654    2.5128    2.6516 H   0  0  0  0  0  0  0  0  0  0  0  0
   -2.2513    1.7484    4.5474 H   0  0  0  0  0  0  0  0  0  0  0  0
   -1.4168    0.5470    5.4867 H   0  0  0  0  0  0  0  0  0  0  0  0
    2.1091   -0.9760    0.7543 H   0  0  0  0  0  0  0  0  0  0  0  0
   -0.1113    4.1961    2.7144 O   0  0  0  0  0  0  0  0  0  0  0  0
    1.2517   -2.2676    1.5714 H   0  0  0  0  0  0  0  0  0  0  0  0
    1.7872    3.5622    1.4372 N   0  0  0  0  0  0  0  0  0  0  0  0
    2.8134    4.3392    2.1419 C   0  0  2  0  0  0  0  0  0  0  0  0
    3.9887    4.4798    1.1946 C   0  0  0  0  0  0  0  0  0  0  0  0
    5.0730    4.9699    1.4988 O   0  0  0  0  0  0  0  0  0  0  0  0
    3.3455    3.6448    3.3606 C   0  0  0  0  0  0  0  0  0  0  0  0
    4.3891    4.4055    4.0921 C   0  0  0  0  0  0  0  0  0  0  0  0
    5.7145    4.4251    3.9787 N   0  0  0  0  0  0  0  0  0  0  0  0
    4.0827    5.2863    5.1409 C   0  0  0  0  0  0  0  0  0  0  0  0
    6.2904    5.2581    4.8841 C   0  0  0  0  0  0  0  0  0  0  0  0
    5.2509    5.7658    5.5788 N   0  0  0  0  0  0  0  0  0  0  0  0
    1.3760    4.1996    0.6834 H   0  0  0  0  0  0  0  0  0  0  0  0
    2.4831    5.3379    2.4112 H   0  0  0  0  0  0  0  0  0  0  0  0
    3.8577    2.7216    2.9783 H   0  0  0  0  0  0  0  0  0  0  0  0
    2.5628    3.3855    4.1074 H   0  0  0  0  0  0  0  0  0  0  0  0
    3.1065    5.5250    5.5120 H   0  0  0  0  0  0  0  0  0  0  0  0
    7.3440    5.4628    5.0191 H   0  0  0  0  0  0  0  0  0  0  0  0
    5.3929    6.4529    6.3580 H   0  0  0  0  0  0  0  0  0  0  0  0
    3.8744    4.0320   -0.1669 N   0  0  0  0  0  0  0  0  0  0  0  0
    4.9547    3.9985   -1.1100 C   0  0  1  0  0  0  0  0  0  0  0  0
    4.8905    2.6790   -1.8850 C   0  0  2  0  0  0  0  0  0  0  0  0
    5.0218    1.4997   -0.9408 C   0  0  2  0  0  0  0  0  0  0  0  0
    4.9372    0.2379   -1.7791 C   0  0  1  0  0  0  0  0  0  0  0  0
    5.0439   -0.9695   -0.9120 N   0  0  2  0  0  0  0  0  0  0  0  0
    5.0806    5.1111   -2.0769 C   0  0  0  0  0  0  0  0  0  0  0  0
    6.2049    4.7738   -2.8926 O   0  0  0  0  0  0  0  0  0  0  0  0
    2.9500    3.7269   -0.4476 H   0  0  0  0  0  0  0  0  0  0  0  0
    5.9538    3.9832   -0.5585 H   0  0  0  0  0  0  0  0  0  0  0  0
    5.6846    2.5981   -2.6447 H   0  0  0  0  0  0  0  0  0  0  0  0
    3.9119    2.6278   -2.4358 H   0  0  0  0  0  0  0  0  0  0  0  0
    4.2353    1.4807   -0.1687 H   0  0  0  0  0  0  0  0  0  0  0  0
    6.0198    1.5488   -0.4908 H   0  0  0  0  0  0  0  0  0  0  0  0
    4.0204    0.1796   -2.3775 H   0  0  0  0  0  0  0  0  0  0  0  0
    5.7810    0.2044   -2.5254 H   0  0  0  0  0  0  0  0  0  0  0  0
    4.3778   -1.7088   -1.2973 H   0  0  0  0  0  0  0  0  0  0  0  0
    4.7819   -0.7181    0.0866 H   0  0  0  0  0  0  0  0  0  0  0  0
    6.0665   -1.3078   -0.9705 H   0  0  0  0  0  0  0  0  0  0  0  0
    4.0419    5.4668   -2.9184 N   0  0  0  0  0  0  0  0  0  0  0  0
    2.9009    6.1822   -2.4414 C   0  0  2  0  0  0  0  0  0  0  0  0
    2.1044    6.5508   -3.6828 C   0  0  0  0  0  0  0  0  0  0  0  0
    2.9241    7.2972   -4.5000 O   0  0  0  0  0  0  0  0  0  0  0  0
    3.2932    7.4732   -1.7460 C   0  0  2  0  0  0  0  0  0  0  0  0
    2.1623    8.2883   -1.2049 C   0  0  1  0  0  0  0  0  0  0  0  0
    2.6659    9.5484   -0.4903 C   0  0  1  0  0  0  0  0  0  0  0  0
    1.4171   10.2633   -0.0122 C   0  0  2  0  0  0  0  0  0  0  0  0
    4.2983    5.8160   -3.8642 H   0  0  0  0  0  0  0  0  0  0  0  0
    2.3345    5.6012   -1.7180 H   0  0  0  0  0  0  0  0  0  0  0  0
    3.8578    8.1493   -2.4471 H   0  0  0  0  0  0  0  0  0  0  0  0
    4.0561    7.2655   -0.9440 H   0  0  0  0  0  0  0  0  0  0  0  0
    1.4309    8.6347   -1.9492 H   0  0  0  0  0  0  0  0  0  0  0  0
    1.6043    7.6606   -0.4565 H   0  0  0  0  0  0  0  0  0  0  0  0
    3.2231    9.2587    0.4411 H   0  0  0  0  0  0  0  0  0  0  0  0
    3.2256   10.1656   -1.1795 H   0  0  0  0  0  0  0  0  0  0  0  0
    1.0300    9.7425    0.8935 H   0  0  0  0  0  0  0  0  0  0  0  0
    0.6581   10.2992   -0.8231 H   0  0  0  0  0  0  0  0  0  0  0  0
    1.6946   11.2856    0.3037 H   0  0  0  0  0  0  0  0  0  0  0  0
    1.5067    5.4759   -4.3888 N   0  0  0  0  0  0  0  0  0  0  0  0
    0.1278    5.2673   -4.1300 C   0  0  2  0  0  0  0  0  0  0  0  0
   -0.2955    3.9410   -4.6356 C   0  0  0  0  0  0  0  0  0  0  0  0
   -1.5316    3.7346   -4.6642 O   0  0  0  0  0  0  0  0  0  0  0  0
   -0.8190    6.2158   -4.8636 C   0  0  0  0  0  0  0  0  0  0  0  0
   -0.6967    7.6281   -4.6397 C   0  0  0  0  0  0  0  0  0  0  0  0
    0.0879    8.3886   -5.5373 C   0  0  0  0  0  0  0  0  0  0  0  0
   -1.3284    8.2687   -3.5810 C   0  0  0  0  0  0  0  0  0  0  0  0
    0.2134    9.7478   -5.3509 C   0  0  0  0  0  0  0  0  0  0  0  0
   -1.1943    9.6422   -3.4050 C   0  0  0  0  0  0  0  0  0  0  0  0
   -0.4256   10.3982   -4.2845 C   0  0  0  0  0  0  0  0  0  0  0  0
   -0.2965   11.7772   -4.1075 O   0  0  0  0  0  0  0  0  0  0  0  0
    1.7274    5.5586   -5.4216 H   0  0  0  0  0  0  0  0  0  0  0  0
   -0.1487    5.3059   -3.0626 H   0  0  0  0  0  0  0  0  0  0  0  0
   -1.8687    5.8536   -4.6625 H   0  0  0  0  0  0  0  0  0  0  0  0
   -0.7109    6.0357   -5.9789 H   0  0  0  0  0  0  0  0  0  0  0  0
    0.5678    7.8569   -6.3512 H   0  0  0  0  0  0  0  0  0  0  0  0
   -1.9409    7.7276   -2.8675 H   0  0  0  0  0  0  0  0  0  0  0  0
    0.8168   10.3488   -6.0436 H   0  0  0  0  0  0  0  0  0  0  0  0
   -1.6903   10.1224   -2.5891 H   0  0  0  0  0  0  0  0  0  0  0  0
    0.4179   12.0725   -3.4168 H   0  0  0  0  0  0  0  0  0  0  0  0
    0.5024    2.8634   -5.0853 N   0  0  0  0  0  0  0  0  0  0  0  0
   -0.1764    1.7271   -5.6540 C   0  0  2  0  0  0  0  0  0  0  0  0
   -0.5104    0.6646   -4.5894 C   0  0  0  0  0  0  0  0  0  0  0  0
   -1.2809    1.1973   -3.5814 O   0  0  0  0  0  0  0  0  0  0  0  0
    0.3936    1.1416   -6.8887 C   0  0  2  0  0  0  0  0  0  0  0  0
    1.7818    0.6192   -6.8329 C   0  0  1  0  0  0  0  0  0  0  0  0
    2.0997    0.0727   -8.2018 N   0  0  2  0  0  0  0  0  0  0  0  0
    1.5090    2.9684   -4.9698 H   0  0  0  0  0  0  0  0  0  0  0  0
   -1.2408    2.0479   -5.9711 H   0  0  0  0  0  0  0  0  0  0  0  0
    0.2828    1.8926   -7.7214 H   0  0  0  0  0  0  0  0  0  0  0  0
   -0.3060    0.3087   -7.1963 H   0  0  0  0  0  0  0  0  0  0  0  0
    2.4649    1.4750   -6.6510 H   0  0  0  0  0  0  0  0  0  0  0  0
    1.9614   -0.1823   -6.1244 H   0  0  0  0  0  0  0  0  0  0  0  0
    1.2747   -0.5701   -8.4663 H   0  0  0  0  0  0  0  0  0  0  0  0
    2.9910   -0.5112   -8.1351 H   0  0  0  0  0  0  0  0  0  0  0  0
    2.1933    0.8779   -8.8809 H   0  0  0  0  0  0  0  0  0  0  0  0
    0.4941   -0.2500   -4.2700 N   0  0  0  0  0  0  0  0  0  0  0  0
    0.2598   -1.3024   -3.3238 C   0  0  2  0  0  0  0  0  0  0  0  0
   -1.1065   -1.8537   -3.3104 C   0  0  0  0  0  0  0  0  0  0  0  0
   -2.1049   -1.2680   -3.7829 O   0  0  0  0  0  0  0  0  0  0  0  0
    0.7008   -0.8542   -1.9344 C   0  0  0  0  0  0  0  0  0  0  0  0
    0.4797   -2.1040   -0.6639 S   0  0  0  0  0  0  0  0  0  0  0  0
    1.3543    0.2618   -3.8943 H   0  0  0  0  0  0  0  0  0  0  0  0
    0.9290   -2.1844   -3.5681 H   0  0  0  0  0  0  0  0  0  0  0  0
    1.8202   -0.7296   -2.0374 H   0  0  0  0  0  0  0  0  0  0  0  0
    0.2352    0.1017   -1.7224 H   0  0  0  0  0  0  0  0  0  0  0  0
   -1.4446   -3.1463   -2.7559 N   0  0  0  0  0  0  0  0  0  0  0  0
   -2.8843   -3.4839   -2.7538 C   0  0  2  0  0  0  0  0  0  0  0  0
   -3.3077   -3.7435   -1.3514 C   0  0  0  0  0  0  0  0  0  0  0  0
   -2.4361   -4.1182   -0.5664 O   0  0  0  0  0  0  0  0  0  0  0  0
   -3.0319   -4.6527   -3.6802 C   0  0  2  0  0  0  0  0  0  0  0  0
   -4.4752   -5.0851   -3.7626 C   0  0  0  0  0  0  0  0  0  0  0  0
   -2.1046   -5.7929   -3.4124 C   0  0  0  0  0  0  0  0  0  0  0  0
   -4.5941   -6.2701   -4.7300 C   0  0  0  0  0  0  0  0  0  0  0  0
   -0.6935   -3.7063   -2.4297 H   0  0  0  0  0  0  0  0  0  0  0  0
   -3.5178   -2.6662   -3.1195 H   0  0  0  0  0  0  0  0  0  0  0  0
   -2.7391   -4.2577   -4.7026 H   0  0  0  0  0  0  0  0  0  0  0  0
   -4.8447   -5.3663   -2.7584 H   0  0  0  0  0  0  0  0  0  0  0  0
   -5.1347   -4.2906   -4.1598 H   0  0  0  0  0  0  0  0  0  0  0  0
   -2.6387   -6.7625   -3.2658 H   0  0  0  0  0  0  0  0  0  0  0  0
   -1.4036   -6.0048   -4.2787 H   0  0  0  0  0  0  0  0  0  0  0  0
   -1.4311   -5.5971   -2.5375 H   0  0  0  0  0  0  0  0  0  0  0  0
   -5.0875   -5.9629   -5.6751 H   0  0  0  0  0  0  0  0  0  0  0  0
   -3.5560   -6.5721   -5.0488 H   0  0  0  0  0  0  0  0  0  0  0  0
   -5.0593   -7.1015   -4.2042 H   0  0  0  0  0  0  0  0  0  0  0  0
   -4.6258   -3.5880   -0.8655 N   0  0  0  0  0  0  0  0  0  0  0  0
   -5.1239   -3.7007    0.4505 C   0  0  2  0  0  0  0  0  0  0  0  0
   -4.0733   -3.2229    1.4149 C   0  0  0  0  0  0  0  0  0  0  0  0
   -2.9855   -2.7168    1.1420 O   0  0  0  0  0  0  0  0  0  0  0  0
   -5.6694   -4.9858    0.8841 C   0  0  0  0  0  0  0  0  0  0  0  0
   -6.8638   -5.4450    0.0259 C   0  0  0  0  0  0  0  0  0  0  0  0
   -7.3617   -6.7919    0.5285 C   0  0  0  0  0  0  0  0  0  0  0  0
   -6.3511   -7.8081    0.4340 N   0  0  0  0  0  0  0  0  0  0  0  0
   -6.7106   -9.1211    0.9147 C   0  0  0  0  0  0  0  0  0  0  0  0
   -5.7560  -10.1613    0.8367 N   0  0  0  0  0  0  0  0  0  0  0  0
   -7.8862   -9.3162    1.3934 N   0  0  0  0  0  0  0  0  0  0  0  0
   -5.3156   -3.3496   -1.6277 H   0  0  0  0  0  0  0  0  0  0  0  0
   -5.9335   -2.8906    0.6410 H   0  0  0  0  0  0  0  0  0  0  0  0
   -6.1495   -4.8530    1.8969 H   0  0  0  0  0  0  0  0  0  0  0  0
   -4.9622   -5.8035    1.0374 H   0  0  0  0  0  0  0  0  0  0  0  0
   -7.7077   -4.7443    0.2059 H   0  0  0  0  0  0  0  0  0  0  0  0
   -6.6507   -5.4257   -1.0532 H   0  0  0  0  0  0  0  0  0  0  0  0
   -7.6390   -6.7081    1.5994 H   0  0  0  0  0  0  0  0  0  0  0  0
   -8.2903   -7.0275   -0.0324 H   0  0  0  0  0  0  0  0  0  0  0  0
   -5.4020   -7.7012    0.0570 H   0  0  0  0  0  0  0  0  0  0  0  0
   -5.9805  -10.9672    0.1982 H   0  0  0  0  0  0  0  0  0  0  0  0
   -4.8571  -10.2125    1.3413 H   0  0  0  0  0  0  0  0  0  0  0  0
   -8.5805   -8.5250    1.4364 H   0  0  0  0  0  0  0  0  0  0  0  0
   -8.2139  -10.2344    1.7587 H   0  0  0  0  0  0  0  0  0  0  0  0
   -4.2996   -3.3362    2.8309 N   0  0  0  0  0  0  0  0  0  0  0  0
   -3.3365   -3.0061    3.8504 C   0  0  2  0  0  0  0  0  0  0  0  0
   -2.8393   -4.2608    4.4578 C   0  0  0  0  0  0  0  0  0  0  0  0
   -2.4409   -4.2109    5.6404 O   0  0  0  0  0  0  0  0  0  0  0  0
   -3.6249   -1.9512    4.8166 C   0  0  0  0  0  0  0  0  0  0  0  0
   -3.4347   -0.2563    4.4460 S   0  0  0  0  0  0  0  0  0  0  0  0
   -5.2176   -3.6581    3.1078 H   0  0  0  0  0  0  0  0  0  0  0  0
   -2.4038   -2.6103    3.2730 H   0  0  0  0  0  0  0  0  0  0  0  0
   -4.6217   -2.1600    5.3686 H   0  0  0  0  0  0  0  0  0  0  0  0
   -2.9081   -2.1681    5.7086 H   0  0  0  0  0  0  0  0  0  0  0  0
   -2.7754   -5.5182    3.8006 N   0  0  0  0  0  0  0  0  0  0  0  0
   -2.2826   -6.6211    4.5913 C   0  0  2  0  0  0  0  0  0  0  0  0
   -0.8102   -6.4406    4.8934 C   0  0  0  0  0  0  0  0  0  0  0  0
   -0.3296   -7.3734    5.6292 O   0  0  0  0  0  0  0  0  0  0  0  0
   -2.4849   -7.9733    3.9999 C   0  0  0  0  0  0  0  0  0  0  0  0
   -1.8146   -8.1712    2.6899 C   0  0  0  0  0  0  0  0  0  0  0  0
   -2.4936   -7.9254    1.4764 C   0  0  0  0  0  0  0  0  0  0  0  0
   -0.5191   -8.6057    2.5416 C   0  0  0  0  0  0  0  0  0  0  0  0
   -1.8815   -8.1131    0.2764 C   0  0  0  0  0  0  0  0  0  0  0  0
    0.1121   -8.7993    1.3315 C   0  0  0  0  0  0  0  0  0  0  0  0
   -0.5779   -8.5507    0.1857 C   0  0  0  0  0  0  0  0  0  0  0  0
    0.0217   -8.7362   -1.0753 O   0  0  0  0  0  0  0  0  0  0  0  0
   -3.0800   -5.5641    2.8140 H   0  0  0  0  0  0  0  0  0  0  0  0
   -2.7774   -6.5704    5.6246 H   0  0  0  0  0  0  0  0  0  0  0  0
   -3.5979   -8.1361    3.7947 H   0  0  0  0  0  0  0  0  0  0  0  0
   -2.2058   -8.7636    4.7167 H   0  0  0  0  0  0  0  0  0  0  0  0
   -3.5132   -7.5902    1.6093 H   0  0  0  0  0  0  0  0  0  0  0  0
    0.0784   -8.8248    3.4184 H   0  0  0  0  0  0  0  0  0  0  0  0
   -2.4653   -7.9075   -0.6310 H   0  0  0  0  0  0  0  0  0  0  0  0
    1.1292   -9.1446    1.2801 H   0  0  0  0  0  0  0  0  0  0  0  0
    0.9187   -8.3293   -1.3239 H   0  0  0  0  0  0  0  0  0  0  0  0
   -0.0275   -5.3850    4.4422 N   0  0  0  0  0  0  0  0  0  0  0  0
    1.3784   -5.3706    4.8546 C   0  0  2  0  0  0  0  0  0  0  0  0
    1.4925   -4.2795    5.8903 C   0  0  0  0  0  0  0  0  0  0  0  0
    0.5195   -3.5689    6.2315 O   0  0  0  0  0  0  0  0  0  0  0  0
    2.3284   -5.1532    3.7279 C   0  0  0  0  0  0  0  0  0  0  0  0
   -0.4386   -4.6517    3.8380 H   0  0  0  0  0  0  0  0  0  0  0  0
    1.6057   -6.2986    5.3952 H   0  0  0  0  0  0  0  0  0  0  0  0
    1.8545   -4.4145    3.0234 H   0  0  0  0  0  0  0  0  0  0  0  0
    2.5189   -6.0766    3.1665 H   0  0  0  0  0  0  0  0  0  0  0  0
    3.3035   -4.7497    4.0983 H   0  0  0  0  0  0  0  0  0  0  0  0
    2.7451   -4.0128    6.5358 N   0  0  0  0  0  0  0  0  0  0  0  0
    3.4602   -3.5038    5.9812 H   0  0  0  0  0  0  0  0  0  0  0  0
    2.9176   -4.3182    7.5141 H   0  0  0  0  0  0  0  0  0  0  0  0
    1.1389    0.1016    3.2213 H   0  0  0  0  0  0  0  0  0  0  0  0
   -0.7408   -0.3247    0.8857 H   0  0  0  0  0  0  0  0  0  0  0  0
    1.1874    1.1739    0.1096 H   0  0  0  0  0  0  0  0  0  0  0  0
   -0.4545    2.6469    0.5461 H   0  0  0  0  0  0  0  0  0  0  0  0
   -1.9848    1.0716    1.6128 H   0  0  0  0  0  0  0  0  0  0  0  0
   -0.1689    1.4798    3.9529 H   0  0  0  0  0  0  0  0  0  0  0  0
    1.1154    2.5900    3.0968 H   0  0  0  0  0  0  0  0  0  0  0  0
    0.1703    4.4930    3.6217 H   0  0  0  0  0  0  0  0  0  0  0  0
    5.4907    6.0217   -1.5220 H   0  0  0  0  0  0  0  0  0  0  0  0
    7.0093    4.6544   -2.3018 H   0  0  0  0  0  0  0  0  0  0  0  0
    1.3475    7.2778   -3.2939 H   0  0  0  0  0  0  0  0  0  0  0  0
    3.1307    6.9078   -5.3742 H   0  0  0  0  0  0  0  0  0  0  0  0
   -1.3132   -0.0054   -5.1544 H   0  0  0  0  0  0  0  0  0  0  0  0
   -0.8438    1.7831   -2.9509 H   0  0  0  0  0  0  0  0  0  0  0  0
  1  2  1  0
  1 11  1  1
  1 12  1  0
  1 13  1  0
  2  3  1  0
  2  7  1  0
  3  4  1  0
  3 10  1  0
  4  5  1  0
  4 14  1  0
  5  6  1  0
  5  9  1  0
  6  7  1  0
  6 15  1  0
  7  8  1  0
  8 16  1  1
  8 17  1  0
  8171  1  0
  9 19  1  0
  9 21  1  0
 10 18  1  6
 10 20  1  0
 10118  1  0
 23 38  1  0
 38 39  1  0
 38 46  1  0
 39 40  1  0
 39 44  1  0
 39 47  1  1
 40 41  1  0
 40 48  1  6
 40 49  1  0
 41 42  1  0
 41 50  1  1
 41 51  1  0
 42 43  1  0
 42 52  1  6
 42 53  1  0
 43 54  1  6
 43 55  1  0
 44 45  1  0
 44 57  1  0
 57 58  1  0
 57 65  1  0
 58 59  1  0
 58 61  1  0
 58 66  1  1
 59 60  1  0
 59 76  1  0
 61 62  1  0
 61 67  1  6
 61 68  1  0
 62 63  1  0
 62 69  1  6
 62 70  1  0
 63 64  1  0
 63 71  1  1
 63 72  1  0
 64 73  1  1
 64 74  1  0
 64 75  1  0
 78 97  1  0
 97 98  1  0
 97104  1  0
 98 99  1  0
 98101  1  0
 98105  1  6
 99100  1  0
 99113  1  0
101102  1  0
101106  1  6
101107  1  0
102103  1  0
102108  1  1
102109  1  0
103110  1  6
103111  1  0
199207  1  0
207208  1  0
207209  1  0
 22 21  1  0
 23 22  1  0
 24 23  2  0
 25 22  1  0
 26 25  1  0
 27 26  1  0
 28 26  2  0
 29 27  2  0
 30 28  1  0
 30 29  1  0
 31 21  1  0
 22 32  1  1
 33 25  1  0
 34 25  1  0
 35 28  1  0
 36 29  1  0
 37 30  1  0
 56 43  1  0
 77 76  1  0
 78 77  1  0
 79 78  2  0
 80 77  1  0
 81 80  1  0
 82 81  2  0
 83 81  1  0
 84 82  1  0
 85 83  2  0
 86 85  1  0
 86 84  2  0
 87 86  1  0
 88 76  1  0
 77 89  1  1
 90 80  1  0
 91 80  1  0
 92 82  1  0
 93 83  1  0
 94 84  1  0
 95 85  1  0
 96 87  1  0
112103  1  0
114113  1  0
115114  1  0
116115  2  0
117114  1  0
118117  1  0
119113  1  0
114120  1  6
121117  1  0
122117  1  0
123115  1  0
124123  1  0
125124  1  0
126125  2  0
127124  1  0
128127  1  0
129127  1  0
130128  1  0
131123  1  0
124132  1  6
127133  1  6
134128  1  0
135128  1  0
136129  1  0
137129  1  0
138129  1  0
139130  1  0
140130  1  0
141130  1  0
142125  1  0
143142  1  0
144143  1  0
145144  2  0
146143  1  0
147146  1  0
148147  1  0
149148  1  0
150149  1  0
151150  1  0
152150  2  0
153142  1  0
143154  1  6
155146  1  0
156146  1  0
157147  1  0
158147  1  0
159148  1  0
160148  1  0
161149  1  0
162151  1  0
163151  1  0
164152  1  0
165152  1  0
166144  1  0
167166  1  0
168167  1  0
169168  2  0
170167  1  0
171170  1  0
172166  1  0
167173  1  6
174170  1  0
175170  1  0
176168  1  0
177176  1  0
178177  1  0
179178  2  0
180177  1  0
181180  1  0
182181  2  0
183181  1  0
184182  1  0
185183  2  0
186185  1  0
186184  2  0
187186  1  0
188176  1  0
177189  1  1
190180  1  0
191180  1  0
192182  1  0
193183  1  0
194184  1  0
195185  1  0
196187  1  0
197178  1  0
198197  1  0
199198  1  0
200199  2  0
201198  1  0
202197  1  0
198203  1  1
204201  1  0
205201  1  0
206201  1  0
  2210  1  1
  3211  1  6
  4212  1  0
  5213  1  0
  6214  1  0
  7215  1  0
  9216  1  0
 19217  1  0
 44218  1  0
 45219  1  0
 59220  1  0
 60221  1  0
 99222  1  0
100223  1  0
M  CHG  3  43   1 103   1 152   1
M  END
$$$$
BP70
     RDKit          3D

223228  0  0  0  0  0  0  0  0999 V2000
   -1.5107   -1.3381    5.0571 C   0  0  2  0  0  0  0  0  0  0  0  0
   -0.5076   -0.4296    4.3038 C   0  0  1  0  0  0  0  0  0  0  0  0
   -1.0587   -0.3016    2.8959 C   0  0  1  0  0  0  0  0  0  0  0  0
   -1.4389    1.0658    2.5121 C   0  0  0  0  0  0  0  0  0  0  0  0
   -0.3385    2.0256    2.8983 C   0  0  0  0  0  0  0  0  0  0  0  0
   -0.3251    2.1178    4.3658 C   0  0  0  0  0  0  0  0  0  0  0  0
   -0.2169    0.7844    5.0518 C   0  0  0  0  0  0  0  0  0  0  0  0
    0.8971    0.8225    6.0226 C   0  0  2  0  0  0  0  0  0  0  0  0
   -0.6698    3.3647    2.2043 C   0  0  0  0  0  0  0  0  0  0  0  0
    0.0168   -0.7937    1.9020 C   0  0  1  0  0  0  0  0  0  0  0  0
   -1.4840   -2.3093    4.5445 H   0  0  0  0  0  0  0  0  0  0  0  0
   -2.5107   -0.8689    5.0551 H   0  0  0  0  0  0  0  0  0  0  0  0
   -1.0909   -1.4709    6.0727 H   0  0  0  0  0  0  0  0  0  0  0  0
   -2.3300    1.3651    3.1052 H   0  0  0  0  0  0  0  0  0  0  0  0
    0.4881    2.7795    4.7571 H   0  0  0  0  0  0  0  0  0  0  0  0
    0.4118    0.4903    7.0388 H   0  0  0  0  0  0  0  0  0  0  0  0
    1.0672    1.9563    6.2684 H   0  0  0  0  0  0  0  0  0  0  0  0
   -0.5348   -0.7747    0.8880 H   0  0  0  0  0  0  0  0  0  0  0  0
    0.5953    4.0292    2.2119 O   0  0  0  0  0  0  0  0  0  0  0  0
    0.8165   -0.1203    1.7675 H   0  0  0  0  0  0  0  0  0  0  0  0
   -1.5501    4.1171    3.0181 N   0  0  0  0  0  0  0  0  0  0  0  0
   -2.0605    5.3545    2.4425 C   0  0  2  0  0  0  0  0  0  0  0  0
   -3.0526    5.0946    1.3719 C   0  0  0  0  0  0  0  0  0  0  0  0
   -3.4439    6.0290    0.6726 O   0  0  0  0  0  0  0  0  0  0  0  0
   -1.0220    6.3537    2.0985 C   0  0  0  0  0  0  0  0  0  0  0  0
   -1.5305    7.6327    1.5326 C   0  0  0  0  0  0  0  0  0  0  0  0
   -1.7548    8.0086    0.2665 N   0  0  0  0  0  0  0  0  0  0  0  0
   -1.8705    8.6970    2.3883 C   0  0  0  0  0  0  0  0  0  0  0  0
   -2.2243    9.2776    0.3143 C   0  0  0  0  0  0  0  0  0  0  0  0
   -2.2947    9.6944    1.5907 N   0  0  0  0  0  0  0  0  0  0  0  0
   -1.0224    4.3509    3.9079 H   0  0  0  0  0  0  0  0  0  0  0  0
   -2.6704    5.8043    3.2766 H   0  0  0  0  0  0  0  0  0  0  0  0
   -0.3712    6.5609    2.9845 H   0  0  0  0  0  0  0  0  0  0  0  0
   -0.2834    5.9779    1.3332 H   0  0  0  0  0  0  0  0  0  0  0  0
   -1.8031    8.7040    3.4731 H   0  0  0  0  0  0  0  0  0  0  0  0
   -2.5188    9.9160   -0.5158 H   0  0  0  0  0  0  0  0  0  0  0  0
   -2.6280   10.6521    1.9066 H   0  0  0  0  0  0  0  0  0  0  0  0
   -3.5965    3.8165    1.0898 N   0  0  0  0  0  0  0  0  0  0  0  0
   -4.5497    3.4017    0.1284 C   0  0  1  0  0  0  0  0  0  0  0  0
   -5.3839    4.4202   -0.5543 C   0  0  2  0  0  0  0  0  0  0  0  0
   -6.2975    5.1800    0.3057 C   0  0  2  0  0  0  0  0  0  0  0  0
   -7.3384    4.3199    1.0080 C   0  0  1  0  0  0  0  0  0  0  0  0
   -8.1831    5.2399    1.8269 N   0  0  2  0  0  0  0  0  0  0  0  0
   -4.0309    2.2890   -0.7813 C   0  0  0  0  0  0  0  0  0  0  0  0
   -2.9869    2.8526   -1.4651 O   0  0  0  0  0  0  0  0  0  0  0  0
   -3.2301    3.0780    1.7307 H   0  0  0  0  0  0  0  0  0  0  0  0
   -5.3503    2.8584    0.7808 H   0  0  0  0  0  0  0  0  0  0  0  0
   -5.9837    3.9266   -1.3494 H   0  0  0  0  0  0  0  0  0  0  0  0
   -4.7400    5.1460   -1.1045 H   0  0  0  0  0  0  0  0  0  0  0  0
   -6.9332    5.8114   -0.4048 H   0  0  0  0  0  0  0  0  0  0  0  0
   -5.9421    5.8775    1.0397 H   0  0  0  0  0  0  0  0  0  0  0  0
   -8.0168    3.8031    0.3268 H   0  0  0  0  0  0  0  0  0  0  0  0
   -6.9400    3.6155    1.7325 H   0  0  0  0  0  0  0  0  0  0  0  0
   -7.5772    5.6786    2.5865 H   0  0  0  0  0  0  0  0  0  0  0  0
   -8.9597    4.6506    2.2593 H   0  0  0  0  0  0  0  0  0  0  0  0
   -8.5878    5.9852    1.1765 H   0  0  0  0  0  0  0  0  0  0  0  0
   -5.0747    1.8547   -1.6069 N   0  0  0  0  0  0  0  0  0  0  0  0
   -4.9573    0.6489   -2.3772 C   0  0  2  0  0  0  0  0  0  0  0  0
   -3.9370    0.5573   -3.4310 C   0  0  0  0  0  0  0  0  0  0  0  0
   -2.6326    0.9252   -2.9125 O   0  0  0  0  0  0  0  0  0  0  0  0
   -6.3191    0.6550   -3.1211 C   0  0  2  0  0  0  0  0  0  0  0  0
   -7.5048    0.6416   -2.1821 C   0  0  1  0  0  0  0  0  0  0  0  0
   -8.7726    0.5938   -3.0465 C   0  0  1  0  0  0  0  0  0  0  0  0
   -9.9418    0.5877   -2.0925 C   0  0  2  0  0  0  0  0  0  0  0  0
   -5.8789    1.6087   -0.9250 H   0  0  0  0  0  0  0  0  0  0  0  0
   -4.9595   -0.2194   -1.7232 H   0  0  0  0  0  0  0  0  0  0  0  0
   -6.4584   -0.1631   -3.7991 H   0  0  0  0  0  0  0  0  0  0  0  0
   -6.3945    1.6655   -3.6331 H   0  0  0  0  0  0  0  0  0  0  0  0
   -7.4695   -0.1229   -1.4155 H   0  0  0  0  0  0  0  0  0  0  0  0
   -7.5898    1.6711   -1.7103 H   0  0  0  0  0  0  0  0  0  0  0  0
   -8.8126    1.5284   -3.6285 H   0  0  0  0  0  0  0  0  0  0  0  0
   -8.8032   -0.2932   -3.6969 H   0  0  0  0  0  0  0  0  0  0  0  0
  -10.7584    1.2557   -2.4758 H   0  0  0  0  0  0  0  0  0  0  0  0
   -9.6603    0.9887   -1.0844 H   0  0  0  0  0  0  0  0  0  0  0  0
  -10.3751   -0.4158   -1.9774 H   0  0  0  0  0  0  0  0  0  0  0  0
   -3.6146   -0.8043   -3.7770 N   0  0  0  0  0  0  0  0  0  0  0  0
   -4.4437   -1.7843   -4.2540 C   0  0  2  0  0  0  0  0  0  0  0  0
   -3.6223   -3.0917   -4.1701 C   0  0  0  0  0  0  0  0  0  0  0  0
   -4.1091   -4.1759   -4.4750 O   0  0  0  0  0  0  0  0  0  0  0  0
   -4.8820   -1.6354   -5.7004 C   0  0  0  0  0  0  0  0  0  0  0  0
   -3.7996   -1.6016   -6.6799 C   0  0  0  0  0  0  0  0  0  0  0  0
   -3.2551   -2.6834   -7.3267 C   0  0  0  0  0  0  0  0  0  0  0  0
   -3.2876   -0.3374   -7.0042 C   0  0  0  0  0  0  0  0  0  0  0  0
   -2.2499   -2.5117   -8.2511 C   0  0  0  0  0  0  0  0  0  0  0  0
   -2.2825   -0.1841   -7.9293 C   0  0  0  0  0  0  0  0  0  0  0  0
   -1.7552   -1.2649   -8.5598 C   0  0  0  0  0  0  0  0  0  0  0  0
   -0.7451   -1.0796   -9.4852 O   0  0  0  0  0  0  0  0  0  0  0  0
   -2.7514   -0.7886   -4.4296 H   0  0  0  0  0  0  0  0  0  0  0  0
   -5.3431   -2.0964   -3.6789 H   0  0  0  0  0  0  0  0  0  0  0  0
   -5.5571   -0.7637   -5.7649 H   0  0  0  0  0  0  0  0  0  0  0  0
   -5.5599   -2.5268   -5.8741 H   0  0  0  0  0  0  0  0  0  0  0  0
   -3.6302   -3.6657   -7.0958 H   0  0  0  0  0  0  0  0  0  0  0  0
   -3.6691    0.5622   -6.5371 H   0  0  0  0  0  0  0  0  0  0  0  0
   -1.8147   -3.3577   -8.7716 H   0  0  0  0  0  0  0  0  0  0  0  0
   -1.9067    0.7930   -8.1639 H   0  0  0  0  0  0  0  0  0  0  0  0
    0.2110   -0.9945   -9.1421 H   0  0  0  0  0  0  0  0  0  0  0  0
   -2.2797   -3.0864   -3.7446 N   0  0  0  0  0  0  0  0  0  0  0  0
   -1.4140   -4.2568   -3.6151 C   0  0  2  0  0  0  0  0  0  0  0  0
   -0.4106   -4.1238   -2.5556 C   0  0  0  0  0  0  0  0  0  0  0  0
    0.3792   -3.0160   -2.7653 O   0  0  0  0  0  0  0  0  0  0  0  0
   -0.7637   -4.5574   -4.9738 C   0  0  2  0  0  0  0  0  0  0  0  0
    0.0553   -3.4589   -5.5301 C   0  0  1  0  0  0  0  0  0  0  0  0
    0.5984   -3.9175   -6.8518 N   0  0  2  0  0  0  0  0  0  0  0  0
   -1.8728   -2.1875   -3.4919 H   0  0  0  0  0  0  0  0  0  0  0  0
   -2.0911   -5.1581   -3.4876 H   0  0  0  0  0  0  0  0  0  0  0  0
   -1.5437   -4.8255   -5.7171 H   0  0  0  0  0  0  0  0  0  0  0  0
   -0.1692   -5.4846   -4.8324 H   0  0  0  0  0  0  0  0  0  0  0  0
   -0.5334   -2.5630   -5.8165 H   0  0  0  0  0  0  0  0  0  0  0  0
    0.9058   -3.1104   -4.9655 H   0  0  0  0  0  0  0  0  0  0  0  0
    1.4152   -4.5773   -6.6828 H   0  0  0  0  0  0  0  0  0  0  0  0
    0.9129   -3.0461   -7.3629 H   0  0  0  0  0  0  0  0  0  0  0  0
   -0.2004   -4.4130   -7.3544 H   0  0  0  0  0  0  0  0  0  0  0  0
   -0.8463   -4.2698   -1.1813 N   0  0  0  0  0  0  0  0  0  0  0  0
   -0.0601   -3.5526   -0.2788 C   0  0  2  0  0  0  0  0  0  0  0  0
    1.3526   -3.8424   -0.0686 C   0  0  0  0  0  0  0  0  0  0  0  0
    1.9702   -2.9628    0.6497 O   0  0  0  0  0  0  0  0  0  0  0  0
   -0.7045   -3.5983    1.1306 C   0  0  0  0  0  0  0  0  0  0  0  0
    0.3387   -2.5364    2.1917 S   0  0  0  0  0  0  0  0  0  0  0  0
   -0.7990   -5.2959   -0.8917 H   0  0  0  0  0  0  0  0  0  0  0  0
   -0.1399   -2.4586   -0.5427 H   0  0  0  0  0  0  0  0  0  0  0  0
   -1.7032   -3.1899    1.1254 H   0  0  0  0  0  0  0  0  0  0  0  0
   -0.6796   -4.6025    1.5348 H   0  0  0  0  0  0  0  0  0  0  0  0
    2.1831   -4.8893   -0.4897 N   0  0  0  0  0  0  0  0  0  0  0  0
    3.5880   -4.8287    0.0835 C   0  0  2  0  0  0  0  0  0  0  0  0
    3.4209   -4.7268    1.5409 C   0  0  0  0  0  0  0  0  0  0  0  0
    2.2476   -5.0974    1.9469 O   0  0  0  0  0  0  0  0  0  0  0  0
    4.3658   -3.7809   -0.5775 C   0  0  2  0  0  0  0  0  0  0  0  0
    4.4580   -4.0119   -2.0908 C   0  0  0  0  0  0  0  0  0  0  0  0
    5.8335   -3.7460   -0.1290 C   0  0  0  0  0  0  0  0  0  0  0  0
    5.2766   -2.8706   -2.6388 C   0  0  0  0  0  0  0  0  0  0  0  0
    1.8723   -5.5946   -1.1015 H   0  0  0  0  0  0  0  0  0  0  0  0
    4.0042   -5.8408   -0.2066 H   0  0  0  0  0  0  0  0  0  0  0  0
    3.9912   -2.7729   -0.4028 H   0  0  0  0  0  0  0  0  0  0  0  0
    5.0092   -4.9455   -2.2504 H   0  0  0  0  0  0  0  0  0  0  0  0
    3.4716   -3.9880   -2.5756 H   0  0  0  0  0  0  0  0  0  0  0  0
    6.0507   -4.7194    0.3367 H   0  0  0  0  0  0  0  0  0  0  0  0
    6.5082   -3.7199   -1.0412 H   0  0  0  0  0  0  0  0  0  0  0  0
    6.0495   -2.9028    0.5344 H   0  0  0  0  0  0  0  0  0  0  0  0
    6.2015   -3.2702   -3.1071 H   0  0  0  0  0  0  0  0  0  0  0  0
    4.7308   -2.3885   -3.5042 H   0  0  0  0  0  0  0  0  0  0  0  0
    5.5151   -2.0973   -1.8750 H   0  0  0  0  0  0  0  0  0  0  0  0
    4.2525   -4.3111    2.5810 N   0  0  0  0  0  0  0  0  0  0  0  0
    3.6575   -4.2992    3.9442 C   0  0  2  0  0  0  0  0  0  0  0  0
    3.2729   -2.8535    4.1523 C   0  0  0  0  0  0  0  0  0  0  0  0
    2.4058   -2.5871    4.9721 O   0  0  0  0  0  0  0  0  0  0  0  0
    4.6567   -4.8180    4.9445 C   0  0  0  0  0  0  0  0  0  0  0  0
    4.0615   -4.7809    6.3041 C   0  0  0  0  0  0  0  0  0  0  0  0
    4.8250   -5.2643    7.4745 C   0  0  0  0  0  0  0  0  0  0  0  0
    6.0803   -4.5981    7.6312 N   0  0  0  0  0  0  0  0  0  0  0  0
    7.2820   -4.9359    6.9613 C   0  0  0  0  0  0  0  0  0  0  0  0
    8.4297   -4.1348    7.2498 N   0  0  0  0  0  0  0  0  0  0  0  0
    7.3915   -5.9122    6.1230 N   0  0  0  0  0  0  0  0  0  0  0  0
    5.1951   -4.0392    2.3999 H   0  0  0  0  0  0  0  0  0  0  0  0
    2.7531   -4.9301    4.0027 H   0  0  0  0  0  0  0  0  0  0  0  0
    5.6242   -4.2683    4.8665 H   0  0  0  0  0  0  0  0  0  0  0  0
    4.7870   -5.9059    4.6644 H   0  0  0  0  0  0  0  0  0  0  0  0
    3.7397   -3.6904    6.4629 H   0  0  0  0  0  0  0  0  0  0  0  0
    3.0539   -5.2896    6.2203 H   0  0  0  0  0  0  0  0  0  0  0  0
    4.9683   -6.3721    7.3551 H   0  0  0  0  0  0  0  0  0  0  0  0
    4.1898   -5.0755    8.3872 H   0  0  0  0  0  0  0  0  0  0  0  0
    6.1109   -3.7744    8.3079 H   0  0  0  0  0  0  0  0  0  0  0  0
    8.4060   -3.0994    7.0579 H   0  0  0  0  0  0  0  0  0  0  0  0
    9.2539   -4.6288    7.6478 H   0  0  0  0  0  0  0  0  0  0  0  0
    6.6304   -6.5538    5.8500 H   0  0  0  0  0  0  0  0  0  0  0  0
    8.3086   -6.0690    5.6821 H   0  0  0  0  0  0  0  0  0  0  0  0
    3.8728   -1.7949    3.4580 N   0  0  0  0  0  0  0  0  0  0  0  0
    3.4683   -0.3946    3.3876 C   0  0  2  0  0  0  0  0  0  0  0  0
    4.2219    0.2798    2.3358 C   0  0  0  0  0  0  0  0  0  0  0  0
    5.4492   -0.1026    2.2072 O   0  0  0  0  0  0  0  0  0  0  0  0
    3.6328    0.3049    4.7407 C   0  0  0  0  0  0  0  0  0  0  0  0
    2.4090   -0.0248    5.9478 S   0  0  0  0  0  0  0  0  0  0  0  0
    4.7314   -2.0465    2.9329 H   0  0  0  0  0  0  0  0  0  0  0  0
    2.3956   -0.4048    3.2580 H   0  0  0  0  0  0  0  0  0  0  0  0
    3.5928    1.4182    4.4925 H   0  0  0  0  0  0  0  0  0  0  0  0
    4.6827    0.1793    5.0994 H   0  0  0  0  0  0  0  0  0  0  0  0
    3.7983    1.2701    1.4466 N   0  0  0  0  0  0  0  0  0  0  0  0
    4.8071    1.7634    0.4981 C   0  0  2  0  0  0  0  0  0  0  0  0
    4.4711    2.9984   -0.1768 C   0  0  0  0  0  0  0  0  0  0  0  0
    5.3864    3.5602   -0.8784 O   0  0  0  0  0  0  0  0  0  0  0  0
    5.0496    0.6566   -0.5577 C   0  0  0  0  0  0  0  0  0  0  0  0
    6.0576    1.1790   -1.5036 C   0  0  0  0  0  0  0  0  0  0  0  0
    7.4118    1.1264   -1.2462 C   0  0  0  0  0  0  0  0  0  0  0  0
    5.6248    1.7264   -2.7203 C   0  0  0  0  0  0  0  0  0  0  0  0
    8.3593    1.5920   -2.1379 C   0  0  0  0  0  0  0  0  0  0  0  0
    6.5961    2.1914   -3.6124 C   0  0  0  0  0  0  0  0  0  0  0  0
    7.9310    2.1340   -3.3445 C   0  0  0  0  0  0  0  0  0  0  0  0
    8.9065    2.5859   -4.2040 O   0  0  0  0  0  0  0  0  0  0  0  0
    2.8241    1.6106    1.4781 H   0  0  0  0  0  0  0  0  0  0  0  0
    5.7895    1.7508    1.0519 H   0  0  0  0  0  0  0  0  0  0  0  0
    5.4804   -0.2110   -0.0431 H   0  0  0  0  0  0  0  0  0  0  0  0
    4.1355    0.4320   -1.1334 H   0  0  0  0  0  0  0  0  0  0  0  0
    7.7544    0.7057   -0.3250 H   0  0  0  0  0  0  0  0  0  0  0  0
    4.5981    1.7997   -2.9776 H   0  0  0  0  0  0  0  0  0  0  0  0
    9.4353    1.5516   -1.9310 H   0  0  0  0  0  0  0  0  0  0  0  0
    6.2505    2.6149   -4.5647 H   0  0  0  0  0  0  0  0  0  0  0  0
    9.5132    3.3866   -4.0344 H   0  0  0  0  0  0  0  0  0  0  0  0
    3.2293    3.6847   -0.1634 N   0  0  0  0  0  0  0  0  0  0  0  0
    3.1078    4.9164   -0.9361 C   0  0  2  0  0  0  0  0  0  0  0  0
    2.9402    6.0661   -0.0047 C   0  0  0  0  0  0  0  0  0  0  0  0
    2.8075    7.2032   -0.5718 O   0  0  0  0  0  0  0  0  0  0  0  0
    1.9572    4.9041   -1.8980 C   0  0  0  0  0  0  0  0  0  0  0  0
    2.4639    3.2875    0.3872 H   0  0  0  0  0  0  0  0  0  0  0  0
    4.0372    5.0964   -1.5256 H   0  0  0  0  0  0  0  0  0  0  0  0
    2.2785    4.9782   -2.9735 H   0  0  0  0  0  0  0  0  0  0  0  0
    1.2833    5.7957   -1.7573 H   0  0  0  0  0  0  0  0  0  0  0  0
    1.3270    3.9843   -1.8267 H   0  0  0  0  0  0  0  0  0  0  0  0
    2.9238    5.9577    1.3981 N   0  0  0  0  0  0  0  0  0  0  0  0
    2.3697    6.6934    1.9177 H   0  0  0  0  0  0  0  0  0  0  0  0
    3.4079    5.2231    1.9559 H   0  0  0  0  0  0  0  0  0  0  0  0
    0.3784   -1.0662    4.2326 H   0  0  0  0  0  0  0  0  0  0  0  0
   -1.9076   -0.9804    2.7540 H   0  0  0  0  0  0  0  0  0  0  0  0
   -1.5760    1.1617    1.4268 H   0  0  0  0  0  0  0  0  0  0  0  0
    0.6611    1.7109    2.5305 H   0  0  0  0  0  0  0  0  0  0  0  0
   -1.2855    2.6039    4.7161 H   0  0  0  0  0  0  0  0  0  0  0  0
   -1.1616    0.8629    5.7795 H   0  0  0  0  0  0  0  0  0  0  0  0
   -0.9672    3.1189    1.1928 H   0  0  0  0  0  0  0  0  0  0  0  0
    1.0284    3.8954    3.1023 H   0  0  0  0  0  0  0  0  0  0  0  0
   -3.6918    1.5075   -0.0460 H   0  0  0  0  0  0  0  0  0  0  0  0
   -2.5357    3.6057   -1.0431 H   0  0  0  0  0  0  0  0  0  0  0  0
   -4.1253    1.2037   -4.2670 H   0  0  0  0  0  0  0  0  0  0  0  0
   -2.0405    1.0850   -3.6971 H   0  0  0  0  0  0  0  0  0  0  0  0
    0.3097   -4.9976   -2.7008 H   0  0  0  0  0  0  0  0  0  0  0  0
    1.2866   -3.0639   -2.4023 H   0  0  0  0  0  0  0  0  0  0  0  0
  1  2  1  0
  1 11  1  6
  1 12  1  0
  1 13  1  0
  2  3  1  0
  2  7  1  0
  3  4  1  0
  3 10  1  0
  4  5  1  0
  4 14  1  0
  5  6  1  0
  5  9  1  0
  6  7  1  0
  6 15  1  0
  7  8  1  0
  8 16  1  1
  8 17  1  0
  8171  1  0
  9 19  1  0
  9 21  1  0
 10 18  1  6
 10 20  1  0
 10118  1  0
 23 38  1  0
 38 39  1  0
 38 46  1  0
 39 40  1  0
 39 44  1  0
 39 47  1  1
 40 41  1  0
 40 48  1  6
 40 49  1  0
 41 42  1  0
 41 50  1  6
 41 51  1  0
 42 43  1  0
 42 52  1  6
 42 53  1  0
 43 54  1  1
 43 55  1  0
 44 45  1  0
 44 57  1  0
 57 58  1  0
 57 65  1  0
 58 59  1  0
 58 61  1  0
 58 66  1  1
 59 60  1  0
 59 76  1  0
 61 62  1  0
 61 67  1  6
 61 68  1  0
 62 63  1  0
 62 69  1  1
 62 70  1  0
 63 64  1  0
 63 71  1  6
 63 72  1  0
 64 73  1  6
 64 74  1  0
 64 75  1  0
 78 97  1  0
 97 98  1  0
 97104  1  0
 98 99  1  0
 98101  1  0
 98105  1  1
 99100  1  0
 99113  1  0
101102  1  0
101106  1  6
101107  1  0
102103  1  0
102108  1  6
102109  1  0
103110  1  1
103111  1  0
199207  1  0
207208  1  0
207209  1  0
 22 21  1  0
 23 22  1  0
 24 23  2  0
 25 22  1  0
 26 25  1  0
 27 26  1  0
 28 26  2  0
 29 27  2  0
 30 28  1  0
 30 29  1  0
 31 21  1  0
 22 32  1  1
 33 25  1  0
 34 25  1  0
 35 28  1  0
 36 29  1  0
 37 30  1  0
 56 43  1  0
 77 76  1  0
 78 77  1  0
 79 78  2  0
 80 77  1  0
 81 80  1  0
 82 81  2  0
 83 81  1  0
 84 82  1  0
 85 83  2  0
 86 85  1  0
 86 84  2  0
 87 86  1  0
 88 76  1  0
 77 89  1  1
 90 80  1  0
 91 80  1  0
 92 82  1  0
 93 83  1  0
 94 84  1  0
 95 85  1  0
 96 87  1  0
112103  1  0
114113  1  0
115114  1  0
116115  2  0
117114  1  0
118117  1  0
119113  1  0
114120  1  6
121117  1  0
122117  1  0
123115  1  0
124123  1  0
125124  1  0
126125  2  0
127124  1  0
128127  1  0
129127  1  0
130128  1  0
131123  1  0
124132  1  1
127133  1  6
134128  1  0
135128  1  0
136129  1  0
137129  1  0
138129  1  0
139130  1  0
140130  1  0
141130  1  0
142125  1  0
143142  1  0
144143  1  0
145144  2  0
146143  1  0
147146  1  0
148147  1  0
149148  1  0
150149  1  0
151150  1  0
152150  2  0
153142  1  0
143154  1  6
155146  1  0
156146  1  0
157147  1  0
158147  1  0
159148  1  0
160148  1  0
161149  1  0
162151  1  0
163151  1  0
164152  1  0
165152  1  0
166144  1  0
167166  1  0
168167  1  0
169168  2  0
170167  1  0
171170  1  0
172166  1  0
167173  1  6
174170  1  0
175170  1  0
176168  1  0
177176  1  0
178177  1  0
179178  2  0
180177  1  0
181180  1  0
182181  2  0
183181  1  0
184182  1  0
185183  2  0
186185  1  0
186184  2  0
187186  1  0
188176  1  0
177189  1  1
190180  1  0
191180  1  0
192182  1  0
193183  1  0
194184  1  0
195185  1  0
196187  1  0
197178  1  0
198197  1  0
199198  1  0
200199  2  0
201198  1  0
202197  1  0
198203  1  6
204201  1  0
205201  1  0
206201  1  0
  2210  1  6
  3211  1  1
  4212  1  0
  5213  1  0
  6214  1  0
  7215  1  0
  9216  1  0
 19217  1  0
 44218  1  0
 45219  1  0
 59220  1  0
 60221  1  0
 99222  1  0
100223  1  0
M  CHG  3  43   1 103   1 152   1
M  END
$$$$
BP70
     RDKit          3D

223228  0  0  0  0  0  0  0  0999 V2000
    0.0704    1.2906   -1.7219 C   0  0  2  0  0  0  0  0  0  0  0  0
    1.0210    2.2389   -0.9449 C   0  0  1  0  0  0  0  0  0  0  0  0
    0.3654    3.5762   -0.8121 C   0  0  1  0  0  0  0  0  0  0  0  0
    0.1034    4.0887    0.5528 C   0  0  0  0  0  0  0  0  0  0  0  0
   -0.0699    2.9615    1.5258 C   0  0  0  0  0  0  0  0  0  0  0  0
    1.0975    2.0291    1.5789 C   0  0  0  0  0  0  0  0  0  0  0  0
    1.5413    1.5473    0.2339 C   0  0  0  0  0  0  0  0  0  0  0  0
    3.0444    1.2873    0.2708 C   0  0  2  0  0  0  0  0  0  0  0  0
   -0.2492    3.5341    2.9418 C   0  0  0  0  0  0  0  0  0  0  0  0
    1.0724    4.6344   -1.6814 C   0  0  1  0  0  0  0  0  0  0  0  0
   -0.8948    1.7739   -1.8400 H   0  0  0  0  0  0  0  0  0  0  0  0
   -0.1124    0.4263   -1.0030 H   0  0  0  0  0  0  0  0  0  0  0  0
    0.5623    0.8887   -2.5968 H   0  0  0  0  0  0  0  0  0  0  0  0
   -0.8871    4.6387    0.5904 H   0  0  0  0  0  0  0  0  0  0  0  0
    1.9384    2.5845    2.0511 H   0  0  0  0  0  0  0  0  0  0  0  0
    3.6316    2.1625    0.5762 H   0  0  0  0  0  0  0  0  0  0  0  0
    3.3834    1.0834   -0.7854 H   0  0  0  0  0  0  0  0  0  0  0  0
    0.6192    5.6428   -1.5102 H   0  0  0  0  0  0  0  0  0  0  0  0
    0.9898    3.5299    3.5409 O   0  0  0  0  0  0  0  0  0  0  0  0
    2.0808    4.7371   -1.1625 H   0  0  0  0  0  0  0  0  0  0  0  0
   -1.1527    2.7938    3.7071 N   0  0  0  0  0  0  0  0  0  0  0  0
   -0.6776    1.8751    4.7057 C   0  0  2  0  0  0  0  0  0  0  0  0
   -1.6773    0.7253    4.7579 C   0  0  0  0  0  0  0  0  0  0  0  0
   -1.9090    0.0171    3.7662 O   0  0  0  0  0  0  0  0  0  0  0  0
   -0.4974    2.4991    6.0739 C   0  0  0  0  0  0  0  0  0  0  0  0
    0.0982    1.5155    7.0303 C   0  0  0  0  0  0  0  0  0  0  0  0
    0.4418    0.2512    6.6567 N   0  0  0  0  0  0  0  0  0  0  0  0
    0.4319    1.6540    8.3469 C   0  0  0  0  0  0  0  0  0  0  0  0
    0.9771   -0.3920    7.6984 C   0  0  0  0  0  0  0  0  0  0  0  0
    0.9741    0.4604    8.7428 N   0  0  0  0  0  0  0  0  0  0  0  0
   -2.0001    3.3249    4.0286 H   0  0  0  0  0  0  0  0  0  0  0  0
    0.2823    1.4263    4.4732 H   0  0  0  0  0  0  0  0  0  0  0  0
    0.1970    3.3441    5.9194 H   0  0  0  0  0  0  0  0  0  0  0  0
   -1.4512    2.9171    6.4651 H   0  0  0  0  0  0  0  0  0  0  0  0
    0.2813    2.5363    8.9428 H   0  0  0  0  0  0  0  0  0  0  0  0
    1.3672   -1.4138    7.7411 H   0  0  0  0  0  0  0  0  0  0  0  0
    1.3186    0.2530    9.6786 H   0  0  0  0  0  0  0  0  0  0  0  0
   -2.4166    0.3934    5.9202 N   0  0  0  0  0  0  0  0  0  0  0  0
   -3.3414   -0.6783    5.9525 C   0  0  1  0  0  0  0  0  0  0  0  0
   -3.6008   -1.2704    7.2852 C   0  0  2  0  0  0  0  0  0  0  0  0
   -2.4210   -1.8449    7.9976 C   0  0  2  0  0  0  0  0  0  0  0  0
   -1.7124   -2.9555    7.2841 C   0  0  1  0  0  0  0  0  0  0  0  0
   -0.6012   -3.3690    8.1585 N   0  0  2  0  0  0  0  0  0  0  0  0
   -4.6821   -0.3745    5.2885 C   0  0  0  0  0  0  0  0  0  0  0  0
   -5.4230   -1.5655    5.5503 O   0  0  0  0  0  0  0  0  0  0  0  0
   -2.2498    0.9884    6.7339 H   0  0  0  0  0  0  0  0  0  0  0  0
   -2.9339   -1.4819    5.2673 H   0  0  0  0  0  0  0  0  0  0  0  0
   -4.3463   -2.1026    7.2070 H   0  0  0  0  0  0  0  0  0  0  0  0
   -4.0661   -0.5411    7.9765 H   0  0  0  0  0  0  0  0  0  0  0  0
   -2.8483   -2.3068    8.9378 H   0  0  0  0  0  0  0  0  0  0  0  0
   -1.7338   -1.0696    8.3899 H   0  0  0  0  0  0  0  0  0  0  0  0
   -2.3512   -3.8647    7.1851 H   0  0  0  0  0  0  0  0  0  0  0  0
   -1.3359   -2.6736    6.2730 H   0  0  0  0  0  0  0  0  0  0  0  0
   -0.8594   -4.2769    8.6834 H   0  0  0  0  0  0  0  0  0  0  0  0
   -0.3969   -2.6112    8.8829 H   0  0  0  0  0  0  0  0  0  0  0  0
    0.2731   -3.5465    7.5473 H   0  0  0  0  0  0  0  0  0  0  0  0
   -4.5852   -0.4084    3.8317 N   0  0  0  0  0  0  0  0  0  0  0  0
   -5.7686    0.1016    3.1843 C   0  0  2  0  0  0  0  0  0  0  0  0
   -5.7276   -0.1397    1.6740 C   0  0  0  0  0  0  0  0  0  0  0  0
   -6.8131    0.4465    1.0802 O   0  0  0  0  0  0  0  0  0  0  0  0
   -6.0420    1.5533    3.4383 C   0  0  2  0  0  0  0  0  0  0  0  0
   -4.9180    2.4497    2.9513 C   0  0  1  0  0  0  0  0  0  0  0  0
   -5.2519    3.9162    3.2201 C   0  0  1  0  0  0  0  0  0  0  0  0
   -4.1428    4.7796    2.7324 C   0  0  2  0  0  0  0  0  0  0  0  0
   -4.4247   -1.3534    3.4533 H   0  0  0  0  0  0  0  0  0  0  0  0
   -6.6222   -0.4878    3.5995 H   0  0  0  0  0  0  0  0  0  0  0  0
   -6.2010    1.7973    4.4948 H   0  0  0  0  0  0  0  0  0  0  0  0
   -6.9786    1.8283    2.9052 H   0  0  0  0  0  0  0  0  0  0  0  0
   -3.9532    2.1747    3.3855 H   0  0  0  0  0  0  0  0  0  0  0  0
   -4.8290    2.3842    1.8554 H   0  0  0  0  0  0  0  0  0  0  0  0
   -6.2081    4.2050    2.7286 H   0  0  0  0  0  0  0  0  0  0  0  0
   -5.4006    4.1206    4.2992 H   0  0  0  0  0  0  0  0  0  0  0  0
   -3.5928    5.2570    3.5938 H   0  0  0  0  0  0  0  0  0  0  0  0
   -4.5825    5.5809    2.0839 H   0  0  0  0  0  0  0  0  0  0  0  0
   -3.4505    4.1679    2.1054 H   0  0  0  0  0  0  0  0  0  0  0  0
   -4.5101    0.0955    1.1041 N   0  0  0  0  0  0  0  0  0  0  0  0
   -4.0938    0.1526   -0.1935 C   0  0  2  0  0  0  0  0  0  0  0  0
   -4.5888    1.3501   -1.0135 C   0  0  0  0  0  0  0  0  0  0  0  0
   -5.5986    1.9803   -0.7244 O   0  0  0  0  0  0  0  0  0  0  0  0
   -4.3807   -1.0132   -1.1184 C   0  0  0  0  0  0  0  0  0  0  0  0
   -3.8378   -2.3102   -0.7268 C   0  0  0  0  0  0  0  0  0  0  0  0
   -4.5525   -3.2598   -0.0294 C   0  0  0  0  0  0  0  0  0  0  0  0
   -2.5302   -2.6595   -1.0631 C   0  0  0  0  0  0  0  0  0  0  0  0
   -4.0565   -4.4892    0.3391 C   0  0  0  0  0  0  0  0  0  0  0  0
   -2.0195   -3.9019   -0.6960 C   0  0  0  0  0  0  0  0  0  0  0  0
   -2.7636   -4.8214   -0.0012 C   0  0  0  0  0  0  0  0  0  0  0  0
   -2.3126   -6.0713    0.3892 O   0  0  0  0  0  0  0  0  0  0  0  0
   -3.7275   -0.1192    1.8155 H   0  0  0  0  0  0  0  0  0  0  0  0
   -2.9731    0.2673   -0.2370 H   0  0  0  0  0  0  0  0  0  0  0  0
   -5.4555   -1.0416   -1.4206 H   0  0  0  0  0  0  0  0  0  0  0  0
   -3.8646   -0.7347   -2.0922 H   0  0  0  0  0  0  0  0  0  0  0  0
   -5.5923   -3.0803    0.2581 H   0  0  0  0  0  0  0  0  0  0  0  0
   -1.8879   -1.9888   -1.6099 H   0  0  0  0  0  0  0  0  0  0  0  0
   -4.6868   -5.2053    0.8935 H   0  0  0  0  0  0  0  0  0  0  0  0
   -1.0070   -4.1274   -0.9810 H   0  0  0  0  0  0  0  0  0  0  0  0
   -2.4744   -6.9122   -0.1135 H   0  0  0  0  0  0  0  0  0  0  0  0
   -3.8562    1.7759   -2.1559 N   0  0  0  0  0  0  0  0  0  0  0  0
   -4.2248    2.8879   -3.0159 C   0  0  2  0  0  0  0  0  0  0  0  0
   -3.3590    2.9325   -4.2319 C   0  0  0  0  0  0  0  0  0  0  0  0
   -3.7790    3.9282   -5.1377 O   0  0  0  0  0  0  0  0  0  0  0  0
   -4.1684    4.1702   -2.1885 C   0  0  2  0  0  0  0  0  0  0  0  0
   -4.5419    5.3631   -2.9752 C   0  0  1  0  0  0  0  0  0  0  0  0
   -4.4573    6.4910   -1.9752 N   0  0  2  0  0  0  0  0  0  0  0  0
   -3.0264    1.2285   -2.3704 H   0  0  0  0  0  0  0  0  0  0  0  0
   -5.2776    2.7967   -3.2575 H   0  0  0  0  0  0  0  0  0  0  0  0
   -3.2048    4.3113   -1.7073 H   0  0  0  0  0  0  0  0  0  0  0  0
   -4.9575    4.0618   -1.3968 H   0  0  0  0  0  0  0  0  0  0  0  0
   -3.7911    5.7034   -3.7227 H   0  0  0  0  0  0  0  0  0  0  0  0
   -5.5809    5.3437   -3.3142 H   0  0  0  0  0  0  0  0  0  0  0  0
   -5.3822    6.4994   -1.4205 H   0  0  0  0  0  0  0  0  0  0  0  0
   -4.3250    7.4022   -2.4917 H   0  0  0  0  0  0  0  0  0  0  0  0
   -3.6582    6.2759   -1.3273 H   0  0  0  0  0  0  0  0  0  0  0  0
   -2.0016    3.1997   -3.8292 N   0  0  0  0  0  0  0  0  0  0  0  0
   -0.9519    3.2324   -4.7051 C   0  0  2  0  0  0  0  0  0  0  0  0
   -0.3917    1.9753   -5.2849 C   0  0  0  0  0  0  0  0  0  0  0  0
   -1.0589    1.0044   -5.6453 O   0  0  0  0  0  0  0  0  0  0  0  0
    0.1094    4.2689   -4.5946 C   0  0  0  0  0  0  0  0  0  0  0  0
    1.2869    4.3249   -3.3474 S   0  0  0  0  0  0  0  0  0  0  0  0
   -1.9484    4.0287   -3.1835 H   0  0  0  0  0  0  0  0  0  0  0  0
   -1.5183    3.6179   -5.7162 H   0  0  0  0  0  0  0  0  0  0  0  0
   -0.3727    5.3116   -4.8231 H   0  0  0  0  0  0  0  0  0  0  0  0
    0.6836    4.1704   -5.6050 H   0  0  0  0  0  0  0  0  0  0  0  0
    1.0390    1.8178   -5.4381 N   0  0  0  0  0  0  0  0  0  0  0  0
    1.7374    0.7808   -6.0803 C   0  0  2  0  0  0  0  0  0  0  0  0
    2.8489    0.0860   -5.4995 C   0  0  0  0  0  0  0  0  0  0  0  0
    3.4328   -0.7749   -6.2258 O   0  0  0  0  0  0  0  0  0  0  0  0
    2.1252    1.2169   -7.5184 C   0  0  2  0  0  0  0  0  0  0  0  0
    2.9525    2.4200   -7.6048 C   0  0  0  0  0  0  0  0  0  0  0  0
    0.8817    1.3352   -8.3662 C   0  0  0  0  0  0  0  0  0  0  0  0
    4.2767    2.4206   -6.9238 C   0  0  0  0  0  0  0  0  0  0  0  0
    1.5836    2.5673   -4.9840 H   0  0  0  0  0  0  0  0  0  0  0  0
    0.9711    0.0099   -6.3315 H   0  0  0  0  0  0  0  0  0  0  0  0
    2.6872    0.3425   -7.8862 H   0  0  0  0  0  0  0  0  0  0  0  0
    2.3924    3.3942   -7.4604 H   0  0  0  0  0  0  0  0  0  0  0  0
    3.2195    2.5110   -8.7043 H   0  0  0  0  0  0  0  0  0  0  0  0
    0.3721    2.3229   -8.2105 H   0  0  0  0  0  0  0  0  0  0  0  0
    0.1746    0.4790   -8.2086 H   0  0  0  0  0  0  0  0  0  0  0  0
    1.1153    1.2814   -9.4658 H   0  0  0  0  0  0  0  0  0  0  0  0
    4.8699    1.5625   -7.2949 H   0  0  0  0  0  0  0  0  0  0  0  0
    4.2543    2.5618   -5.8315 H   0  0  0  0  0  0  0  0  0  0  0  0
    4.8408    3.3195   -7.3189 H   0  0  0  0  0  0  0  0  0  0  0  0
    3.4347    0.1863   -4.1970 N   0  0  0  0  0  0  0  0  0  0  0  0
    4.6952   -0.5758   -3.9799 C   0  0  2  0  0  0  0  0  0  0  0  0
    4.6266   -1.3760   -2.7459 C   0  0  0  0  0  0  0  0  0  0  0  0
    5.5182   -2.1599   -2.3540 O   0  0  0  0  0  0  0  0  0  0  0  0
    5.8271    0.4449   -3.8882 C   0  0  0  0  0  0  0  0  0  0  0  0
    7.1410   -0.2817   -3.7969 C   0  0  0  0  0  0  0  0  0  0  0  0
    8.3323    0.6093   -3.6992 C   0  0  0  0  0  0  0  0  0  0  0  0
    8.4942    1.4311   -2.5610 N   0  0  0  0  0  0  0  0  0  0  0  0
    8.7791    0.9752   -1.2346 C   0  0  0  0  0  0  0  0  0  0  0  0
    8.9258    1.8522   -0.1294 N   0  0  0  0  0  0  0  0  0  0  0  0
    8.9002   -0.2710   -1.0471 N   0  0  0  0  0  0  0  0  0  0  0  0
    2.9638    0.7492   -3.5249 H   0  0  0  0  0  0  0  0  0  0  0  0
    4.9549   -1.2242   -4.8107 H   0  0  0  0  0  0  0  0  0  0  0  0
    5.6709    0.9562   -2.8918 H   0  0  0  0  0  0  0  0  0  0  0  0
    5.7959    1.1537   -4.7221 H   0  0  0  0  0  0  0  0  0  0  0  0
    7.1441   -1.1638   -3.1639 H   0  0  0  0  0  0  0  0  0  0  0  0
    7.2547   -0.7508   -4.8531 H   0  0  0  0  0  0  0  0  0  0  0  0
    8.3344    1.2476   -4.6133 H   0  0  0  0  0  0  0  0  0  0  0  0
    9.2320   -0.0297   -3.7838 H   0  0  0  0  0  0  0  0  0  0  0  0
    8.3956    2.4902   -2.6652 H   0  0  0  0  0  0  0  0  0  0  0  0
    8.2433    2.6465    0.0516 H   0  0  0  0  0  0  0  0  0  0  0  0
    9.7364    1.7161    0.5383 H   0  0  0  0  0  0  0  0  0  0  0  0
    9.1191   -0.6984   -0.0652 H   0  0  0  0  0  0  0  0  0  0  0  0
    8.8426   -1.0247   -1.7684 H   0  0  0  0  0  0  0  0  0  0  0  0
    3.5032   -1.3606   -1.8154 N   0  0  0  0  0  0  0  0  0  0  0  0
    3.5710   -2.1576   -0.6164 C   0  0  2  0  0  0  0  0  0  0  0  0
    2.9645   -3.4958   -1.0847 C   0  0  0  0  0  0  0  0  0  0  0  0
    2.7616   -3.4737   -2.3375 O   0  0  0  0  0  0  0  0  0  0  0  0
    2.8385   -1.7237    0.5778 C   0  0  0  0  0  0  0  0  0  0  0  0
    3.4125   -0.1701    1.2367 S   0  0  0  0  0  0  0  0  0  0  0  0
    2.7397   -0.7640   -2.1163 H   0  0  0  0  0  0  0  0  0  0  0  0
    4.6557   -2.4085   -0.3773 H   0  0  0  0  0  0  0  0  0  0  0  0
    3.0143   -2.4795    1.4096 H   0  0  0  0  0  0  0  0  0  0  0  0
    1.7269   -1.7360    0.4507 H   0  0  0  0  0  0  0  0  0  0  0  0
    2.7113   -4.5180   -0.2005 N   0  0  0  0  0  0  0  0  0  0  0  0
    2.1913   -5.8446   -0.3236 C   0  0  2  0  0  0  0  0  0  0  0  0
    1.8499   -6.3073   -1.6962 C   0  0  0  0  0  0  0  0  0  0  0  0
    1.9773   -5.6713   -2.7511 O   0  0  0  0  0  0  0  0  0  0  0  0
    1.1056   -6.1191    0.6670 C   0  0  0  0  0  0  0  0  0  0  0  0
    1.5397   -6.0018    2.0843 C   0  0  0  0  0  0  0  0  0  0  0  0
    1.5161   -4.7755    2.7251 C   0  0  0  0  0  0  0  0  0  0  0  0
    1.9598   -7.0850    2.8338 C   0  0  0  0  0  0  0  0  0  0  0  0
    1.9003   -4.6393    4.0599 C   0  0  0  0  0  0  0  0  0  0  0  0
    2.3420   -6.9623    4.1633 C   0  0  0  0  0  0  0  0  0  0  0  0
    2.3157   -5.7128    4.7992 C   0  0  0  0  0  0  0  0  0  0  0  0
    2.6934   -5.5776    6.1229 O   0  0  0  0  0  0  0  0  0  0  0  0
    2.9874   -4.2980    0.8354 H   0  0  0  0  0  0  0  0  0  0  0  0
    3.0900   -6.5170   -0.0618 H   0  0  0  0  0  0  0  0  0  0  0  0
    0.6818   -7.1084    0.5221 H   0  0  0  0  0  0  0  0  0  0  0  0
    0.2790   -5.3495    0.5796 H   0  0  0  0  0  0  0  0  0  0  0  0
    1.1988   -3.8535    2.2519 H   0  0  0  0  0  0  0  0  0  0  0  0
    2.0002   -8.0671    2.3879 H   0  0  0  0  0  0  0  0  0  0  0  0
    1.8747   -3.6579    4.5221 H   0  0  0  0  0  0  0  0  0  0  0  0
    2.6664   -7.8054    4.7593 H   0  0  0  0  0  0  0  0  0  0  0  0
    2.4026   -6.2289    6.8384 H   0  0  0  0  0  0  0  0  0  0  0  0
    1.3196   -7.6326   -1.8233 N   0  0  0  0  0  0  0  0  0  0  0  0
    0.9907   -8.1524   -3.1374 C   0  0  2  0  0  0  0  0  0  0  0  0
   -0.4723   -8.1134   -3.3076 C   0  0  0  0  0  0  0  0  0  0  0  0
   -1.2889   -7.7187   -2.4432 O   0  0  0  0  0  0  0  0  0  0  0  0
    1.4581   -9.5459   -3.3623 C   0  0  0  0  0  0  0  0  0  0  0  0
    1.1573   -8.2630   -0.9968 H   0  0  0  0  0  0  0  0  0  0  0  0
    1.4690   -7.4788   -3.8880 H   0  0  0  0  0  0  0  0  0  0  0  0
    0.9430   -9.9217   -4.2860 H   0  0  0  0  0  0  0  0  0  0  0  0
    1.0752  -10.2374   -2.5661 H   0  0  0  0  0  0  0  0  0  0  0  0
    2.5285   -9.6817   -3.5561 H   0  0  0  0  0  0  0  0  0  0  0  0
   -1.0063   -8.5546   -4.5527 N   0  0  0  0  0  0  0  0  0  0  0  0
   -1.0086   -9.5657   -4.8208 H   0  0  0  0  0  0  0  0  0  0  0  0
   -1.4091   -7.8893   -5.2424 H   0  0  0  0  0  0  0  0  0  0  0  0
    1.8820    2.3787   -1.6488 H   0  0  0  0  0  0  0  0  0  0  0  0
   -0.6282    3.4975   -1.3070 H   0  0  0  0  0  0  0  0  0  0  0  0
    0.8352    4.8654    0.9296 H   0  0  0  0  0  0  0  0  0  0  0  0
   -1.0255    2.4504    1.2194 H   0  0  0  0  0  0  0  0  0  0  0  0
    0.7470    1.1582    2.2110 H   0  0  0  0  0  0  0  0  0  0  0  0
    1.1447    0.4675    0.1796 H   0  0  0  0  0  0  0  0  0  0  0  0
   -0.6330    4.5696    2.7717 H   0  0  0  0  0  0  0  0  0  0  0  0
    1.3234    4.4739    3.6537 H   0  0  0  0  0  0  0  0  0  0  0  0
   -5.2575    0.4278    5.7078 H   0  0  0  0  0  0  0  0  0  0  0  0
   -6.1098   -1.3971    6.2658 H   0  0  0  0  0  0  0  0  0  0  0  0
   -5.8870   -1.2934    1.6387 H   0  0  0  0  0  0  0  0  0  0  0  0
   -7.3616   -0.1400    0.4983 H   0  0  0  0  0  0  0  0  0  0  0  0
   -3.4252    1.9874   -4.7522 H   0  0  0  0  0  0  0  0  0  0  0  0
   -4.6365    3.5587   -5.5355 H   0  0  0  0  0  0  0  0  0  0  0  0
  1  2  1  0
  1 11  1  6
  1 12  1  0
  1 13  1  0
  2  3  1  0
  2  7  1  0
  3  4  1  0
  3 10  1  0
  4  5  1  0
  4 14  1  0
  5  6  1  0
  5  9  1  0
  6  7  1  0
  6 15  1  0
  7  8  1  0
  8 16  1  1
  8 17  1  0
  8171  1  0
  9 19  1  0
  9 21  1  0
 10 18  1  6
 10 20  1  0
 10118  1  0
 23 38  1  0
 38 39  1  0
 38 46  1  0
 39 40  1  0
 39 44  1  0
 39 47  1  6
 40 41  1  0
 40 48  1  6
 40 49  1  0
 41 42  1  0
 41 50  1  1
 41 51  1  0
 42 43  1  0
 42 52  1  6
 42 53  1  0
 43 54  1  1
 43 55  1  0
 44 45  1  0
 44 57  1  0
 57 58  1  0
 57 65  1  0
 58 59  1  0
 58 61  1  0
 58 66  1  1
 59 60  1  0
 59 76  1  0
 61 62  1  0
 61 67  1  1
 61 68  1  0
 62 63  1  0
 62 69  1  1
 62 70  1  0
 63 64  1  0
 63 71  1  6
 63 72  1  0
 64 73  1  1
 64 74  1  0
 64 75  1  0
 78 97  1  0
 97 98  1  0
 97104  1  0
 98 99  1  0
 98101  1  0
 98105  1  6
 99100  1  0
 99113  1  0
101102  1  0
101106  1  1
101107  1  0
102103  1  0
102108  1  6
102109  1  0
103110  1  1
103111  1  0
199207  1  0
207208  1  0
207209  1  0
 22 21  1  0
 23 22  1  0
 24 23  2  0
 25 22  1  0
 26 25  1  0
 27 26  1  0
 28 26  2  0
 29 27  2  0
 30 28  1  0
 30 29  1  0
 31 21  1  0
 22 32  1  6
 33 25  1  0
 34 25  1  0
 35 28  1  0
 36 29  1  0
 37 30  1  0
 56 43  1  0
 77 76  1  0
 78 77  1  0
 79 78  2  0
 80 77  1  0
 81 80  1  0
 82 81  2  0
 83 81  1  0
 84 82  1  0
 85 83  2  0
 86 85  1  0
 86 84  2  0
 87 86  1  0
 88 76  1  0
 77 89  1  1
 90 80  1  0
 91 80  1  0
 92 82  1  0
 93 83  1  0
 94 84  1  0
 95 85  1  0
 96 87  1  0
112103  1  0
114113  1  0
115114  1  0
116115  2  0
117114  1  0
118117  1  0
119113  1  0
114120  1  6
121117  1  0
122117  1  0
123115  1  0
124123  1  0
125124  1  0
126125  2  0
127124  1  0
128127  1  0
129127  1  0
130128  1  0
131123  1  0
124132  1  6
127133  1  6
134128  1  0
135128  1  0
136129  1  0
137129  1  0
138129  1  0
139130  1  0
140130  1  0
141130  1  0
142125  1  0
143142  1  0
144143  1  0
145144  2  0
146143  1  0
147146  1  0
148147  1  0
149148  1  0
150149  1  0
151150  1  0
152150  2  0
153142  1  0
143154  1  6
155146  1  0
156146  1  0
157147  1  0
158147  1  0
159148  1  0
160148  1  0
161149  1  0
162151  1  0
163151  1  0
164152  1  0
165152  1  0
166144  1  0
167166  1  0
168167  1  0
169168  2  0
170167  1  0
171170  1  0
172166  1  0
167173  1  1
174170  1  0
175170  1  0
176168  1  0
177176  1  0
178177  1  0
179178  2  0
180177  1  0
181180  1  0
182181  2  0
183181  1  0
184182  1  0
185183  2  0
186185  1  0
186184  2  0
187186  1  0
188176  1  0
177189  1  1
190180  1  0
191180  1  0
192182  1  0
193183  1  0
194184  1  0
195185  1  0
196187  1  0
197178  1  0
198197  1  0
199198  1  0
200199  2  0
201198  1  0
202197  1  0
198203  1  6
204201  1  0
205201  1  0
206201  1  0
  2210  1  6
  3211  1  6
  4212  1  0
  5213  1  0
  6214  1  0
  7215  1  0
  9216  1  0
 19217  1  0
 44218  1  0
 45219  1  0
 59220  1  0
 60221  1  0
 99222  1  0
100223  1  0
M  CHG  3  43   1 103   1 152   1
M  END
$$$$
BP70
     RDKit          3D

223228  0  0  0  0  0  0  0  0999 V2000
   -2.4813    0.0788    4.7746 C   0  0  2  0  0  0  0  0  0  0  0  0
   -2.7784   -0.9182    3.6864 C   0  0  1  0  0  0  0  0  0  0  0  0
   -2.5054   -2.2951    4.1832 C   0  0  1  0  0  0  0  0  0  0  0  0
   -2.4029   -3.1762    2.9283 C   0  0  0  0  0  0  0  0  0  0  0  0
   -3.5985   -2.8994    2.0282 C   0  0  0  0  0  0  0  0  0  0  0  0
   -4.7272   -2.2214    2.7525 C   0  0  0  0  0  0  0  0  0  0  0  0
   -4.2444   -0.8895    3.2890 C   0  0  0  0  0  0  0  0  0  0  0  0
   -4.5658    0.2702    2.4616 C   0  0  2  0  0  0  0  0  0  0  0  0
   -4.0149   -4.2716    1.4585 C   0  0  0  0  0  0  0  0  0  0  0  0
   -1.4318   -2.5611    5.1425 C   0  0  1  0  0  0  0  0  0  0  0  0
   -2.8619   -0.2754    5.7612 H   0  0  0  0  0  0  0  0  0  0  0  0
   -3.0299    1.0337    4.5638 H   0  0  0  0  0  0  0  0  0  0  0  0
   -1.4071    0.3092    4.7937 H   0  0  0  0  0  0  0  0  0  0  0  0
   -2.4010   -4.2064    3.3132 H   0  0  0  0  0  0  0  0  0  0  0  0
   -5.5258   -2.0474    1.9865 H   0  0  0  0  0  0  0  0  0  0  0  0
   -5.2346    1.0152    2.9941 H   0  0  0  0  0  0  0  0  0  0  0  0
   -5.1627   -0.0476    1.5686 H   0  0  0  0  0  0  0  0  0  0  0  0
   -1.5184   -1.7837    5.9592 H   0  0  0  0  0  0  0  0  0  0  0  0
   -4.7635   -4.1267    0.3201 O   0  0  0  0  0  0  0  0  0  0  0  0
   -1.6739   -3.5558    5.6477 H   0  0  0  0  0  0  0  0  0  0  0  0
   -2.8898   -5.0910    1.4490 N   0  0  0  0  0  0  0  0  0  0  0  0
   -2.3443   -5.6668    0.2590 C   0  0  2  0  0  0  0  0  0  0  0  0
   -2.1290   -4.5961   -0.8024 C   0  0  0  0  0  0  0  0  0  0  0  0
   -2.6440   -3.5397   -0.9056 O   0  0  0  0  0  0  0  0  0  0  0  0
   -3.2929   -6.7583   -0.2591 C   0  0  0  0  0  0  0  0  0  0  0  0
   -2.7670   -7.4610   -1.4395 C   0  0  0  0  0  0  0  0  0  0  0  0
   -1.9947   -8.6412   -1.1781 N   0  0  0  0  0  0  0  0  0  0  0  0
   -2.7600   -7.4039   -2.7235 C   0  0  0  0  0  0  0  0  0  0  0  0
   -1.6204   -9.1384   -2.3688 C   0  0  0  0  0  0  0  0  0  0  0  0
   -2.1190   -8.3242   -3.4152 N   0  0  0  0  0  0  0  0  0  0  0  0
   -3.1262   -5.9777    2.0286 H   0  0  0  0  0  0  0  0  0  0  0  0
   -1.3987   -6.1773    0.5109 H   0  0  0  0  0  0  0  0  0  0  0  0
   -4.1750   -6.1559   -0.6482 H   0  0  0  0  0  0  0  0  0  0  0  0
   -3.6385   -7.3904    0.5676 H   0  0  0  0  0  0  0  0  0  0  0  0
   -3.2829   -6.5782   -3.3139 H   0  0  0  0  0  0  0  0  0  0  0  0
   -1.0343  -10.0299   -2.4962 H   0  0  0  0  0  0  0  0  0  0  0  0
   -1.9438   -8.5267   -4.4034 H   0  0  0  0  0  0  0  0  0  0  0  0
   -1.1494   -4.9287   -1.8429 N   0  0  0  0  0  0  0  0  0  0  0  0
   -0.7660   -4.0517   -2.8980 C   0  0  1  0  0  0  0  0  0  0  0  0
   -1.6076   -4.1039   -4.1409 C   0  0  2  0  0  0  0  0  0  0  0  0
   -3.0317   -3.7217   -4.0562 C   0  0  2  0  0  0  0  0  0  0  0  0
   -3.5779   -3.8724   -5.4880 C   0  0  1  0  0  0  0  0  0  0  0  0
   -5.0042   -3.5558   -5.5375 N   0  0  2  0  0  0  0  0  0  0  0  0
   -0.3493   -2.6576   -2.5641 C   0  0  0  0  0  0  0  0  0  0  0  0
   -1.2072   -1.8174   -1.9527 O   0  0  0  0  0  0  0  0  0  0  0  0
   -0.7529   -5.8571   -1.7500 H   0  0  0  0  0  0  0  0  0  0  0  0
    0.2255   -4.4967   -3.2596 H   0  0  0  0  0  0  0  0  0  0  0  0
   -1.5993   -5.1867   -4.5228 H   0  0  0  0  0  0  0  0  0  0  0  0
   -1.1483   -3.5766   -4.9905 H   0  0  0  0  0  0  0  0  0  0  0  0
   -3.1453   -2.6039   -3.8735 H   0  0  0  0  0  0  0  0  0  0  0  0
   -3.7024   -4.2424   -3.4011 H   0  0  0  0  0  0  0  0  0  0  0  0
   -3.0176   -3.1919   -6.1715 H   0  0  0  0  0  0  0  0  0  0  0  0
   -3.4197   -4.8826   -5.8891 H   0  0  0  0  0  0  0  0  0  0  0  0
   -5.4735   -3.9636   -4.6517 H   0  0  0  0  0  0  0  0  0  0  0  0
   -5.4368   -4.0455   -6.3949 H   0  0  0  0  0  0  0  0  0  0  0  0
   -5.1720   -2.5232   -5.6058 H   0  0  0  0  0  0  0  0  0  0  0  0
    0.9199   -2.5223   -1.9106 N   0  0  0  0  0  0  0  0  0  0  0  0
    2.0647   -2.8438   -2.6244 C   0  0  2  0  0  0  0  0  0  0  0  0
    2.8949   -3.8689   -1.8962 C   0  0  0  0  0  0  0  0  0  0  0  0
    2.2469   -5.0757   -1.6605 O   0  0  0  0  0  0  0  0  0  0  0  0
    2.9516   -1.7843   -3.1803 C   0  0  2  0  0  0  0  0  0  0  0  0
    2.4311   -0.7830   -4.1155 C   0  0  1  0  0  0  0  0  0  0  0  0
    1.4611    0.2298   -3.6248 C   0  0  1  0  0  0  0  0  0  0  0  0
    1.1003    1.0986   -4.8522 C   0  0  2  0  0  0  0  0  0  0  0  0
    0.8261   -2.6845   -0.9181 H   0  0  0  0  0  0  0  0  0  0  0  0
    1.7572   -3.4259   -3.5958 H   0  0  0  0  0  0  0  0  0  0  0  0
    3.8065   -2.3055   -3.7660 H   0  0  0  0  0  0  0  0  0  0  0  0
    3.5282   -1.2375   -2.3897 H   0  0  0  0  0  0  0  0  0  0  0  0
    3.3455   -0.2408   -4.5399 H   0  0  0  0  0  0  0  0  0  0  0  0
    1.9938   -1.2293   -5.0570 H   0  0  0  0  0  0  0  0  0  0  0  0
    0.5328   -0.0968   -3.2008 H   0  0  0  0  0  0  0  0  0  0  0  0
    2.0057    0.9444   -2.9344 H   0  0  0  0  0  0  0  0  0  0  0  0
    0.8826    2.1314   -4.5388 H   0  0  0  0  0  0  0  0  0  0  0  0
    0.2523    0.5690   -5.3409 H   0  0  0  0  0  0  0  0  0  0  0  0
    1.9546    1.0076   -5.5457 H   0  0  0  0  0  0  0  0  0  0  0  0
    3.4974   -3.4947   -0.6315 N   0  0  0  0  0  0  0  0  0  0  0  0
    4.0706   -4.7407   -0.1426 C   0  0  2  0  0  0  0  0  0  0  0  0
    4.5149   -4.7220    1.2716 C   0  0  0  0  0  0  0  0  0  0  0  0
    4.9834   -5.7077    1.8567 O   0  0  0  0  0  0  0  0  0  0  0  0
    5.3183   -5.0173   -0.9965 C   0  0  0  0  0  0  0  0  0  0  0  0
    6.3735   -4.0288   -0.8349 C   0  0  0  0  0  0  0  0  0  0  0  0
    7.3670   -4.2450    0.0286 C   0  0  0  0  0  0  0  0  0  0  0  0
    6.3146   -2.7606   -1.6326 C   0  0  0  0  0  0  0  0  0  0  0  0
    8.4264   -3.3678    0.2846 C   0  0  0  0  0  0  0  0  0  0  0  0
    7.4099   -2.0009   -1.2854 C   0  0  0  0  0  0  0  0  0  0  0  0
    8.4057   -2.2267   -0.4211 C   0  0  0  0  0  0  0  0  0  0  0  0
    9.4825   -1.3254   -0.1948 O   0  0  0  0  0  0  0  0  0  0  0  0
    2.7518   -3.2061    0.0211 H   0  0  0  0  0  0  0  0  0  0  0  0
    3.4223   -5.6066   -0.2714 H   0  0  0  0  0  0  0  0  0  0  0  0
    5.1059   -5.2955   -2.0259 H   0  0  0  0  0  0  0  0  0  0  0  0
    5.7025   -5.9957   -0.5397 H   0  0  0  0  0  0  0  0  0  0  0  0
    7.3448   -5.2040    0.5800 H   0  0  0  0  0  0  0  0  0  0  0  0
    5.5411   -2.5995   -2.2822 H   0  0  0  0  0  0  0  0  0  0  0  0
    9.1349   -3.6856    1.0260 H   0  0  0  0  0  0  0  0  0  0  0  0
    7.4498   -1.0258   -1.8362 H   0  0  0  0  0  0  0  0  0  0  0  0
   10.3157   -1.4856   -0.7578 H   0  0  0  0  0  0  0  0  0  0  0  0
    4.4500   -3.5333    2.1113 N   0  0  0  0  0  0  0  0  0  0  0  0
    4.8828   -3.6861    3.5212 C   0  0  2  0  0  0  0  0  0  0  0  0
    4.4487   -2.6230    4.4329 C   0  0  0  0  0  0  0  0  0  0  0  0
    4.8498   -2.8577    5.7914 O   0  0  0  0  0  0  0  0  0  0  0  0
    6.4348   -3.5276    3.3820 C   0  0  2  0  0  0  0  0  0  0  0  0
    7.1523   -3.7087    4.6656 C   0  0  1  0  0  0  0  0  0  0  0  0
    6.9502   -5.0623    5.2196 N   0  0  2  0  0  0  0  0  0  0  0  0
    4.1455   -2.7208    1.6585 H   0  0  0  0  0  0  0  0  0  0  0  0
    4.8017   -4.7204    3.8783 H   0  0  0  0  0  0  0  0  0  0  0  0
    6.6122   -2.5241    2.9429 H   0  0  0  0  0  0  0  0  0  0  0  0
    6.6998   -4.3508    2.7055 H   0  0  0  0  0  0  0  0  0  0  0  0
    8.2950   -3.6243    4.4608 H   0  0  0  0  0  0  0  0  0  0  0  0
    6.9692   -2.9473    5.4307 H   0  0  0  0  0  0  0  0  0  0  0  0
    6.2375   -5.0732    5.9918 H   0  0  0  0  0  0  0  0  0  0  0  0
    7.9069   -5.4068    5.5925 H   0  0  0  0  0  0  0  0  0  0  0  0
    6.6618   -5.7336    4.4233 H   0  0  0  0  0  0  0  0  0  0  0  0
    3.0781   -2.3078    4.5041 N   0  0  0  0  0  0  0  0  0  0  0  0
    2.4851   -1.4687    3.5476 C   0  0  2  0  0  0  0  0  0  0  0  0
    3.1699   -0.1367    3.4245 C   0  0  0  0  0  0  0  0  0  0  0  0
    4.0803    0.2861    4.1248 O   0  0  0  0  0  0  0  0  0  0  0  0
    1.0570   -1.1716    4.1153 C   0  0  0  0  0  0  0  0  0  0  0  0
    0.2274   -2.7004    4.5197 S   0  0  0  0  0  0  0  0  0  0  0  0
    2.4590   -3.1842    4.5956 H   0  0  0  0  0  0  0  0  0  0  0  0
    2.3258   -1.9172    2.5943 H   0  0  0  0  0  0  0  0  0  0  0  0
    0.4653   -0.5489    3.4794 H   0  0  0  0  0  0  0  0  0  0  0  0
    1.2566   -0.6365    5.0906 H   0  0  0  0  0  0  0  0  0  0  0  0
    2.7091    0.7021    2.3770 N   0  0  0  0  0  0  0  0  0  0  0  0
    3.2788    1.9797    1.9802 C   0  0  2  0  0  0  0  0  0  0  0  0
    2.3502    3.0206    1.9404 C   0  0  0  0  0  0  0  0  0  0  0  0
    1.2846    2.5682    2.8302 O   0  0  0  0  0  0  0  0  0  0  0  0
    4.1951    1.8585    0.7809 C   0  0  2  0  0  0  0  0  0  0  0  0
    3.5569    1.3276   -0.4601 C   0  0  0  0  0  0  0  0  0  0  0  0
    5.3771    0.9074    1.0745 C   0  0  0  0  0  0  0  0  0  0  0  0
    4.6644    1.3219   -1.5321 C   0  0  0  0  0  0  0  0  0  0  0  0
    1.8798    0.3828    1.8780 H   0  0  0  0  0  0  0  0  0  0  0  0
    4.0267    2.1661    2.8340 H   0  0  0  0  0  0  0  0  0  0  0  0
    4.6936    2.8127    0.5376 H   0  0  0  0  0  0  0  0  0  0  0  0
    2.8206    2.0717   -0.7997 H   0  0  0  0  0  0  0  0  0  0  0  0
    3.1839    0.3078   -0.4032 H   0  0  0  0  0  0  0  0  0  0  0  0
    5.9383    0.8152    0.1323 H   0  0  0  0  0  0  0  0  0  0  0  0
    5.0308   -0.1070    1.3428 H   0  0  0  0  0  0  0  0  0  0  0  0
    6.0219    1.3731    1.8284 H   0  0  0  0  0  0  0  0  0  0  0  0
    5.1271    0.3297   -1.6576 H   0  0  0  0  0  0  0  0  0  0  0  0
    5.3812    2.1444   -1.3139 H   0  0  0  0  0  0  0  0  0  0  0  0
    4.2242    1.5732   -2.5154 H   0  0  0  0  0  0  0  0  0  0  0  0
    1.8775    4.2210    1.5364 N   0  0  0  0  0  0  0  0  0  0  0  0
    0.6043    4.8747    1.9524 C   0  0  2  0  0  0  0  0  0  0  0  0
   -0.3923    4.2882    1.0276 C   0  0  0  0  0  0  0  0  0  0  0  0
    0.0024    3.8137   -0.1103 O   0  0  0  0  0  0  0  0  0  0  0  0
    0.7219    6.3391    1.7239 C   0  0  0  0  0  0  0  0  0  0  0  0
   -0.5080    7.1004    2.0908 C   0  0  0  0  0  0  0  0  0  0  0  0
   -0.8871    7.1058    3.5270 C   0  0  0  0  0  0  0  0  0  0  0  0
   -2.1341    7.7241    3.8444 N   0  0  0  0  0  0  0  0  0  0  0  0
   -2.6499    7.9734    5.1126 C   0  0  0  0  0  0  0  0  0  0  0  0
   -3.9507    8.5676    5.2999 N   0  0  0  0  0  0  0  0  0  0  0  0
   -1.9758    7.6445    6.1280 N   0  0  0  0  0  0  0  0  0  0  0  0
    2.4299    4.7917    0.8649 H   0  0  0  0  0  0  0  0  0  0  0  0
    0.2702    4.5766    2.9485 H   0  0  0  0  0  0  0  0  0  0  0  0
    0.7689    6.4511    0.5850 H   0  0  0  0  0  0  0  0  0  0  0  0
    1.6809    6.7676    2.0346 H   0  0  0  0  0  0  0  0  0  0  0  0
   -0.3584    8.1404    1.7186 H   0  0  0  0  0  0  0  0  0  0  0  0
   -1.3387    6.6248    1.5421 H   0  0  0  0  0  0  0  0  0  0  0  0
   -0.8269    6.1155    4.0160 H   0  0  0  0  0  0  0  0  0  0  0  0
   -0.0420    7.6873    4.0525 H   0  0  0  0  0  0  0  0  0  0  0  0
   -2.7973    8.0694    3.0423 H   0  0  0  0  0  0  0  0  0  0  0  0
   -4.4820    8.3146    6.1768 H   0  0  0  0  0  0  0  0  0  0  0  0
   -4.3826    9.2357    4.6440 H   0  0  0  0  0  0  0  0  0  0  0  0
   -2.5370    7.9257    7.0761 H   0  0  0  0  0  0  0  0  0  0  0  0
   -1.1084    7.2346    6.3985 H   0  0  0  0  0  0  0  0  0  0  0  0
   -1.7790    4.1526    1.2226 N   0  0  0  0  0  0  0  0  0  0  0  0
   -2.6783    3.5136    0.2668 C   0  0  2  0  0  0  0  0  0  0  0  0
   -3.4198    4.6703   -0.4348 C   0  0  0  0  0  0  0  0  0  0  0  0
   -3.2827    5.8340   -0.1041 O   0  0  0  0  0  0  0  0  0  0  0  0
   -3.7236    2.6350    0.8830 C   0  0  0  0  0  0  0  0  0  0  0  0
   -3.1279    1.2540    1.8783 S   0  0  0  0  0  0  0  0  0  0  0  0
   -2.1647    4.5267    2.0861 H   0  0  0  0  0  0  0  0  0  0  0  0
   -2.1973    3.0027   -0.5641 H   0  0  0  0  0  0  0  0  0  0  0  0
   -4.2862    2.1518    0.0191 H   0  0  0  0  0  0  0  0  0  0  0  0
   -4.4952    3.2218    1.4539 H   0  0  0  0  0  0  0  0  0  0  0  0
   -4.2953    4.1962   -1.4924 N   0  0  0  0  0  0  0  0  0  0  0  0
   -5.0132    5.2323   -2.1662 C   0  0  2  0  0  0  0  0  0  0  0  0
   -4.3246    6.5362   -2.2837 C   0  0  0  0  0  0  0  0  0  0  0  0
   -5.1412    7.5509   -2.2354 O   0  0  0  0  0  0  0  0  0  0  0  0
   -6.4451    5.3301   -1.7698 C   0  0  0  0  0  0  0  0  0  0  0  0
   -7.2045    4.0705   -2.0772 C   0  0  0  0  0  0  0  0  0  0  0  0
   -7.2078    3.0431   -1.1832 C   0  0  0  0  0  0  0  0  0  0  0  0
   -7.9537    3.9804   -3.2941 C   0  0  0  0  0  0  0  0  0  0  0  0
   -7.9049    1.8789   -1.3594 C   0  0  0  0  0  0  0  0  0  0  0  0
   -8.6267    2.7856   -3.3943 C   0  0  0  0  0  0  0  0  0  0  0  0
   -8.6678    1.7557   -2.5594 C   0  0  0  0  0  0  0  0  0  0  0  0
   -9.3474    0.5733   -2.6657 O   0  0  0  0  0  0  0  0  0  0  0  0
   -4.3494    3.1911   -1.7194 H   0  0  0  0  0  0  0  0  0  0  0  0
   -4.9930    4.8925   -3.2760 H   0  0  0  0  0  0  0  0  0  0  0  0
   -6.9348    6.1483   -2.3381 H   0  0  0  0  0  0  0  0  0  0  0  0
   -6.5493    5.5583   -0.6735 H   0  0  0  0  0  0  0  0  0  0  0  0
   -6.5874    3.1914   -0.2873 H   0  0  0  0  0  0  0  0  0  0  0  0
   -7.9713    4.7794   -3.9971 H   0  0  0  0  0  0  0  0  0  0  0  0
   -7.8716    1.0754   -0.6416 H   0  0  0  0  0  0  0  0  0  0  0  0
   -9.2283    2.6998   -4.3258 H   0  0  0  0  0  0  0  0  0  0  0  0
  -10.0186    0.3881   -1.9105 H   0  0  0  0  0  0  0  0  0  0  0  0
   -2.9374    6.7172   -2.4409 N   0  0  0  0  0  0  0  0  0  0  0  0
   -2.4781    8.1280   -2.5347 C   0  0  2  0  0  0  0  0  0  0  0  0
   -1.7572    8.2627   -3.7436 C   0  0  0  0  0  0  0  0  0  0  0  0
   -1.3774    9.6196   -3.8839 O   0  0  0  0  0  0  0  0  0  0  0  0
   -1.5923    8.3406   -1.3227 C   0  0  0  0  0  0  0  0  0  0  0  0
   -2.2863    5.9291   -2.5175 H   0  0  0  0  0  0  0  0  0  0  0  0
   -3.3683    8.8095   -2.4702 H   0  0  0  0  0  0  0  0  0  0  0  0
   -2.2277    8.6162   -0.4387 H   0  0  0  0  0  0  0  0  0  0  0  0
   -1.0388    7.3718   -1.1635 H   0  0  0  0  0  0  0  0  0  0  0  0
   -0.9220    9.1774   -1.5738 H   0  0  0  0  0  0  0  0  0  0  0  0
   -1.2686    7.6197   -4.8448 N   0  0  0  0  0  0  0  0  0  0  0  0
   -1.5849    7.9550   -5.8059 H   0  0  0  0  0  0  0  0  0  0  0  0
   -0.6041    6.8120   -4.8917 H   0  0  0  0  0  0  0  0  0  0  0  0
   -2.1242   -0.7250    2.8236 H   0  0  0  0  0  0  0  0  0  0  0  0
   -3.4835   -2.6923    4.6507 H   0  0  0  0  0  0  0  0  0  0  0  0
   -1.5002   -2.9988    2.3511 H   0  0  0  0  0  0  0  0  0  0  0  0
   -3.2966   -2.2224    1.2177 H   0  0  0  0  0  0  0  0  0  0  0  0
   -5.1507   -2.8513    3.5522 H   0  0  0  0  0  0  0  0  0  0  0  0
   -4.7995   -0.7768    4.2807 H   0  0  0  0  0  0  0  0  0  0  0  0
   -4.7751   -4.6795    2.2322 H   0  0  0  0  0  0  0  0  0  0  0  0
   -5.6326   -4.6192    0.3545 H   0  0  0  0  0  0  0  0  0  0  0  0
   -0.2132   -2.1902   -3.6287 H   0  0  0  0  0  0  0  0  0  0  0  0
   -1.5156   -1.0638   -2.5394 H   0  0  0  0  0  0  0  0  0  0  0  0
    3.7702   -4.1576   -2.5759 H   0  0  0  0  0  0  0  0  0  0  0  0
    1.6122   -5.0154   -0.8890 H   0  0  0  0  0  0  0  0  0  0  0  0
    5.0280   -1.6564    4.2107 H   0  0  0  0  0  0  0  0  0  0  0  0
    4.8002   -1.9986    6.2923 H   0  0  0  0  0  0  0  0  0  0  0  0
  1  2  1  0
  1 11  1  1
  1 12  1  0
  1 13  1  0
  2  3  1  0
  2  7  1  0
  3  4  1  0
  3 10  1  0
  4  5  1  0
  4 14  1  0
  5  6  1  0
  5  9  1  0
  6  7  1  0
  6 15  1  0
  7  8  1  0
  8 16  1  1
  8 17  1  0
  8171  1  0
  9 19  1  0
  9 21  1  0
 10 18  1  1
 10 20  1  0
 10118  1  0
 23 38  1  0
 38 39  1  0
 38 46  1  0
 39 40  1  0
 39 44  1  0
 39 47  1  6
 40 41  1  0
 40 48  1  6
 40 49  1  0
 41 42  1  0
 41 50  1  1
 41 51  1  0
 42 43  1  0
 42 52  1  6
 42 53  1  0
 43 54  1  1
 43 55  1  0
 44 45  1  0
 44 57  1  0
 57 58  1  0
 57 65  1  0
 58 59  1  0
 58 61  1  0
 58 66  1  6
 59 60  1  0
 59 76  1  0
 61 62  1  0
 61 67  1  6
 61 68  1  0
 62 63  1  0
 62 69  1  6
 62 70  1  0
 63 64  1  0
 63 71  1  1
 63 72  1  0
 64 73  1  1
 64 74  1  0
 64 75  1  0
 78 97  1  0
 97 98  1  0
 97104  1  0
 98 99  1  0
 98101  1  0
 98105  1  1
 99100  1  0
 99113  1  0
101102  1  0
101106  1  6
101107  1  0
102103  1  0
102108  1  6
102109  1  0
103110  1  1
103111  1  0
199207  1  0
207208  1  0
207209  1  0
 22 21  1  0
 23 22  1  0
 24 23  2  0
 25 22  1  0
 26 25  1  0
 27 26  1  0
 28 26  2  0
 29 27  2  0
 30 28  1  0
 30 29  1  0
 31 21  1  0
 22 32  1  1
 33 25  1  0
 34 25  1  0
 35 28  1  0
 36 29  1  0
 37 30  1  0
 56 43  1  0
 77 76  1  0
 78 77  1  0
 79 78  2  0
 80 77  1  0
 81 80  1  0
 82 81  2  0
 83 81  1  0
 84 82  1  0
 85 83  2  0
 86 85  1  0
 86 84  2  0
 87 86  1  0
 88 76  1  0
 77 89  1  1
 90 80  1  0
 91 80  1  0
 92 82  1  0
 93 83  1  0
 94 84  1  0
 95 85  1  0
 96 87  1  0
112103  1  0
114113  1  0
115114  1  0
116115  2  0
117114  1  0
118117  1  0
119113  1  0
114120  1  6
121117  1  0
122117  1  0
123115  1  0
124123  1  0
125124  1  0
126125  2  0
127124  1  0
128127  1  0
129127  1  0
130128  1  0
131123  1  0
124132  1  1
127133  1  6
134128  1  0
135128  1  0
136129  1  0
137129  1  0
138129  1  0
139130  1  0
140130  1  0
141130  1  0
142125  1  0
143142  1  0
144143  1  0
145144  2  0
146143  1  0
147146  1  0
148147  1  0
149148  1  0
150149  1  0
151150  1  0
152150  2  0
153142  1  0
143154  1  1
155146  1  0
156146  1  0
157147  1  0
158147  1  0
159148  1  0
160148  1  0
161149  1  0
162151  1  0
163151  1  0
164152  1  0
165152  1  0
166144  1  0
167166  1  0
168167  1  0
169168  2  0
170167  1  0
171170  1  0
172166  1  0
167173  1  6
174170  1  0
175170  1  0
176168  1  0
177176  1  0
178177  1  0
179178  2  0
180177  1  0
181180  1  0
182181  2  0
183181  1  0
184182  1  0
185183  2  0
186185  1  0
186184  2  0
187186  1  0
188176  1  0
177189  1  6
190180  1  0
191180  1  0
192182  1  0
193183  1  0
194184  1  0
195185  1  0
196187  1  0
197178  1  0
198197  1  0
199198  1  0
200199  2  0
201198  1  0
202197  1  0
198203  1  6
204201  1  0
205201  1  0
206201  1  0
  2210  1  6
  3211  1  1
  4212  1  0
  5213  1  0
  6214  1  0
  7215  1  0
  9216  1  0
 19217  1  0
 44218  1  0
 45219  1  0
 59220  1  0
 60221  1  0
 99222  1  0
100223  1  0
M  CHG  3  43   1 103   1 152   1
M  END
$$$$
BP70
     RDKit          3D

223228  0  0  0  0  0  0  0  0999 V2000
   -1.4601   -6.2173    2.9123 C   0  0  2  0  0  0  0  0  0  0  0  0
   -2.0089   -4.9640    2.2420 C   0  0  1  0  0  0  0  0  0  0  0  0
   -2.2596   -5.2233    0.8250 C   0  0  1  0  0  0  0  0  0  0  0  0
   -3.5751   -4.7457    0.2722 C   0  0  0  0  0  0  0  0  0  0  0  0
   -4.1446   -3.5490    1.0467 C   0  0  0  0  0  0  0  0  0  0  0  0
   -4.3682   -4.0372    2.4431 C   0  0  0  0  0  0  0  0  0  0  0  0
   -3.0754   -4.3310    3.0926 C   0  0  0  0  0  0  0  0  0  0  0  0
   -2.4278   -3.2706    3.9391 C   0  0  2  0  0  0  0  0  0  0  0  0
   -5.2597   -2.8262    0.3925 C   0  0  0  0  0  0  0  0  0  0  0  0
   -1.0470   -4.8360   -0.0395 C   0  0  1  0  0  0  0  0  0  0  0  0
   -0.8515   -6.7816    2.1979 H   0  0  0  0  0  0  0  0  0  0  0  0
   -2.3462   -6.8481    3.1716 H   0  0  0  0  0  0  0  0  0  0  0  0
   -0.9265   -5.9075    3.8386 H   0  0  0  0  0  0  0  0  0  0  0  0
   -4.3795   -5.5027    0.2705 H   0  0  0  0  0  0  0  0  0  0  0  0
   -4.9860   -3.3936    3.0754 H   0  0  0  0  0  0  0  0  0  0  0  0
   -1.3363   -3.5754    4.0619 H   0  0  0  0  0  0  0  0  0  0  0  0
   -2.7510   -3.4542    5.0425 H   0  0  0  0  0  0  0  0  0  0  0  0
   -1.3136   -4.8708   -1.1348 H   0  0  0  0  0  0  0  0  0  0  0  0
   -5.6202   -3.6627   -0.7177 O   0  0  0  0  0  0  0  0  0  0  0  0
   -0.8672   -3.7854    0.1663 H   0  0  0  0  0  0  0  0  0  0  0  0
   -5.1442   -1.5014    0.0061 N   0  0  0  0  0  0  0  0  0  0  0  0
   -5.4945   -0.3322    0.7628 C   0  0  2  0  0  0  0  0  0  0  0  0
   -4.7352    0.8073    0.2584 C   0  0  0  0  0  0  0  0  0  0  0  0
   -3.9708    0.5896   -0.7377 O   0  0  0  0  0  0  0  0  0  0  0  0
   -5.8470   -0.5214    2.1641 C   0  0  0  0  0  0  0  0  0  0  0  0
   -6.1978    0.6142    3.0291 C   0  0  0  0  0  0  0  0  0  0  0  0
   -7.4446    1.1558    3.1610 N   0  0  0  0  0  0  0  0  0  0  0  0
   -5.3545    1.2931    3.9325 C   0  0  0  0  0  0  0  0  0  0  0  0
   -7.3805    2.1234    4.0977 C   0  0  0  0  0  0  0  0  0  0  0  0
   -6.1228    2.2058    4.5631 N   0  0  0  0  0  0  0  0  0  0  0  0
   -5.6373   -1.3964   -0.9267 H   0  0  0  0  0  0  0  0  0  0  0  0
   -6.5841   -0.0744    0.3081 H   0  0  0  0  0  0  0  0  0  0  0  0
   -5.1336   -1.1283    2.7587 H   0  0  0  0  0  0  0  0  0  0  0  0
   -6.7945   -1.1958    2.2334 H   0  0  0  0  0  0  0  0  0  0  0  0
   -4.2928    1.1116    4.0880 H   0  0  0  0  0  0  0  0  0  0  0  0
   -8.2124    2.7462    4.4268 H   0  0  0  0  0  0  0  0  0  0  0  0
   -5.8297    2.8773    5.2900 H   0  0  0  0  0  0  0  0  0  0  0  0
   -4.6661    2.1612    0.6678 N   0  0  0  0  0  0  0  0  0  0  0  0
   -3.9499    3.2108    0.0194 C   0  0  1  0  0  0  0  0  0  0  0  0
   -4.7654    4.4606    0.1519 C   0  0  2  0  0  0  0  0  0  0  0  0
   -6.1223    4.5383   -0.3830 C   0  0  2  0  0  0  0  0  0  0  0  0
   -6.3286    4.3577   -1.8434 C   0  0  1  0  0  0  0  0  0  0  0  0
   -7.7963    4.4741   -2.1100 N   0  0  2  0  0  0  0  0  0  0  0  0
   -2.5466    3.5738    0.3201 C   0  0  0  0  0  0  0  0  0  0  0  0
   -2.2624    3.9133    1.6431 O   0  0  0  0  0  0  0  0  0  0  0  0
   -5.2099    2.3917    1.4989 H   0  0  0  0  0  0  0  0  0  0  0  0
   -3.9461    2.9334   -1.0571 H   0  0  0  0  0  0  0  0  0  0  0  0
   -4.1723    5.3526   -0.2124 H   0  0  0  0  0  0  0  0  0  0  0  0
   -4.8405    4.6707    1.2620 H   0  0  0  0  0  0  0  0  0  0  0  0
   -6.4348    5.6186   -0.1894 H   0  0  0  0  0  0  0  0  0  0  0  0
   -6.9013    4.0000    0.2421 H   0  0  0  0  0  0  0  0  0  0  0  0
   -5.8659    5.2267   -2.4031 H   0  0  0  0  0  0  0  0  0  0  0  0
   -5.9215    3.4496   -2.2744 H   0  0  0  0  0  0  0  0  0  0  0  0
   -7.9377    4.8830   -3.0784 H   0  0  0  0  0  0  0  0  0  0  0  0
   -8.2081    5.1179   -1.3704 H   0  0  0  0  0  0  0  0  0  0  0  0
   -8.2351    3.4994   -2.0433 H   0  0  0  0  0  0  0  0  0  0  0  0
   -1.4545    2.9806   -0.4075 N   0  0  0  0  0  0  0  0  0  0  0  0
   -0.6067    3.9733   -1.0950 C   0  0  2  0  0  0  0  0  0  0  0  0
    0.4605    3.3720   -1.9603 C   0  0  0  0  0  0  0  0  0  0  0  0
   -0.1159    2.5794   -2.9633 O   0  0  0  0  0  0  0  0  0  0  0  0
   -0.0034    4.9397   -0.1400 C   0  0  2  0  0  0  0  0  0  0  0  0
    0.7899    6.0650   -0.7050 C   0  0  1  0  0  0  0  0  0  0  0  0
    0.0814    7.1243   -1.4544 C   0  0  1  0  0  0  0  0  0  0  0  0
   -0.6572    6.7439   -2.6802 C   0  0  2  0  0  0  0  0  0  0  0  0
   -1.6663    2.1619   -0.9665 H   0  0  0  0  0  0  0  0  0  0  0  0
   -1.3050    4.4954   -1.7477 H   0  0  0  0  0  0  0  0  0  0  0  0
    0.6125    4.4335    0.6522 H   0  0  0  0  0  0  0  0  0  0  0  0
   -0.8177    5.4567    0.4654 H   0  0  0  0  0  0  0  0  0  0  0  0
    1.2770    6.5726    0.1824 H   0  0  0  0  0  0  0  0  0  0  0  0
    1.6698    5.6997   -1.2934 H   0  0  0  0  0  0  0  0  0  0  0  0
   -0.5905    7.7406   -0.7931 H   0  0  0  0  0  0  0  0  0  0  0  0
    0.8336    7.9276   -1.7990 H   0  0  0  0  0  0  0  0  0  0  0  0
   -1.7675    6.6299   -2.4973 H   0  0  0  0  0  0  0  0  0  0  0  0
   -0.2569    5.9306   -3.2931 H   0  0  0  0  0  0  0  0  0  0  0  0
   -0.6757    7.6278   -3.4279 H   0  0  0  0  0  0  0  0  0  0  0  0
    1.5884    2.7046   -1.3365 N   0  0  0  0  0  0  0  0  0  0  0  0
    2.3194    2.0113   -2.3951 C   0  0  2  0  0  0  0  0  0  0  0  0
    3.0850    0.8073   -1.8240 C   0  0  0  0  0  0  0  0  0  0  0  0
    3.2546    0.7086   -0.6271 O   0  0  0  0  0  0  0  0  0  0  0  0
    3.3983    2.8186   -3.0585 C   0  0  0  0  0  0  0  0  0  0  0  0
    4.5122    3.2697   -2.2121 C   0  0  0  0  0  0  0  0  0  0  0  0
    4.5769    4.4605   -1.5382 C   0  0  0  0  0  0  0  0  0  0  0  0
    5.6391    2.4418   -2.0499 C   0  0  0  0  0  0  0  0  0  0  0  0
    5.6491    4.8513   -0.7491 C   0  0  0  0  0  0  0  0  0  0  0  0
    6.7103    2.8227   -1.2665 C   0  0  0  0  0  0  0  0  0  0  0  0
    6.7450    4.0135   -0.6069 C   0  0  0  0  0  0  0  0  0  0  0  0
    7.7955    4.4278    0.1846 O   0  0  0  0  0  0  0  0  0  0  0  0
    2.2773    3.3725   -0.9278 H   0  0  0  0  0  0  0  0  0  0  0  0
    1.6427    1.6327   -3.1694 H   0  0  0  0  0  0  0  0  0  0  0  0
    3.7773    2.1627   -3.9029 H   0  0  0  0  0  0  0  0  0  0  0  0
    2.9131    3.6705   -3.6140 H   0  0  0  0  0  0  0  0  0  0  0  0
    3.7732    5.1395   -1.6284 H   0  0  0  0  0  0  0  0  0  0  0  0
    5.7218    1.4862   -2.5342 H   0  0  0  0  0  0  0  0  0  0  0  0
    5.6780    5.7990   -0.2243 H   0  0  0  0  0  0  0  0  0  0  0  0
    7.5795    2.1715   -1.1502 H   0  0  0  0  0  0  0  0  0  0  0  0
    7.7165    5.2323    0.7937 H   0  0  0  0  0  0  0  0  0  0  0  0
    3.5936   -0.1920   -2.6835 N   0  0  0  0  0  0  0  0  0  0  0  0
    4.2439   -1.4442   -2.3554 C   0  0  2  0  0  0  0  0  0  0  0  0
    3.2801   -2.2766   -1.6106 C   0  0  0  0  0  0  0  0  0  0  0  0
    2.8543   -1.6622   -0.4868 O   0  0  0  0  0  0  0  0  0  0  0  0
    5.6324   -1.3198   -1.9094 C   0  0  2  0  0  0  0  0  0  0  0  0
    6.3113   -2.6379   -1.6440 C   0  0  1  0  0  0  0  0  0  0  0  0
    7.7219   -2.3856   -1.1984 N   0  0  2  0  0  0  0  0  0  0  0  0
    3.4799    0.0487   -3.6938 H   0  0  0  0  0  0  0  0  0  0  0  0
    4.3079   -1.9728   -3.3884 H   0  0  0  0  0  0  0  0  0  0  0  0
    5.8022   -0.6050   -1.0779 H   0  0  0  0  0  0  0  0  0  0  0  0
    6.2176   -0.8649   -2.7677 H   0  0  0  0  0  0  0  0  0  0  0  0
    5.8315   -3.1776   -0.8323 H   0  0  0  0  0  0  0  0  0  0  0  0
    6.3592   -3.2656   -2.5734 H   0  0  0  0  0  0  0  0  0  0  0  0
    7.7090   -1.6690   -0.4262 H   0  0  0  0  0  0  0  0  0  0  0  0
    8.2515   -2.0001   -2.0548 H   0  0  0  0  0  0  0  0  0  0  0  0
    8.1227   -3.3159   -0.8922 H   0  0  0  0  0  0  0  0  0  0  0  0
    3.5458   -3.6505   -1.2746 N   0  0  0  0  0  0  0  0  0  0  0  0
    2.4873   -4.1759   -0.4234 C   0  0  2  0  0  0  0  0  0  0  0  0
    2.8693   -4.0326    0.9908 C   0  0  0  0  0  0  0  0  0  0  0  0
    2.1181   -4.6035    1.8336 O   0  0  0  0  0  0  0  0  0  0  0  0
    1.8244   -5.4426   -0.8168 C   0  0  0  0  0  0  0  0  0  0  0  0
    0.3844   -5.9009    0.1560 S   0  0  0  0  0  0  0  0  0  0  0  0
    3.6410   -4.2773   -2.1058 H   0  0  0  0  0  0  0  0  0  0  0  0
    1.5909   -3.4192   -0.5029 H   0  0  0  0  0  0  0  0  0  0  0  0
    1.5336   -5.3908   -1.8747 H   0  0  0  0  0  0  0  0  0  0  0  0
    2.5559   -6.2712   -0.7182 H   0  0  0  0  0  0  0  0  0  0  0  0
    3.9514   -3.3494    1.5676 N   0  0  0  0  0  0  0  0  0  0  0  0
    4.1126   -3.3079    3.0702 C   0  0  2  0  0  0  0  0  0  0  0  0
    3.2432   -2.1672    3.4207 C   0  0  0  0  0  0  0  0  0  0  0  0
    2.8073   -1.5079    2.4365 O   0  0  0  0  0  0  0  0  0  0  0  0
    5.5311   -3.2353    3.3582 C   0  0  2  0  0  0  0  0  0  0  0  0
    6.3416   -4.3983    2.8237 C   0  0  0  0  0  0  0  0  0  0  0  0
    5.9154   -3.0966    4.8052 C   0  0  0  0  0  0  0  0  0  0  0  0
    5.9487   -5.7377    3.3429 C   0  0  0  0  0  0  0  0  0  0  0  0
    4.6336   -2.8907    1.0315 H   0  0  0  0  0  0  0  0  0  0  0  0
    3.6235   -4.1957    3.4833 H   0  0  0  0  0  0  0  0  0  0  0  0
    6.0003   -2.3285    2.8758 H   0  0  0  0  0  0  0  0  0  0  0  0
    6.2445   -4.4418    1.7172 H   0  0  0  0  0  0  0  0  0  0  0  0
    7.4340   -4.2603    3.0322 H   0  0  0  0  0  0  0  0  0  0  0  0
    5.6645   -2.0806    5.1087 H   0  0  0  0  0  0  0  0  0  0  0  0
    5.5410   -3.8954    5.4619 H   0  0  0  0  0  0  0  0  0  0  0  0
    7.0195   -3.1597    4.8473 H   0  0  0  0  0  0  0  0  0  0  0  0
    6.6440   -6.4748    2.8313 H   0  0  0  0  0  0  0  0  0  0  0  0
    6.1819   -5.8854    4.4323 H   0  0  0  0  0  0  0  0  0  0  0  0
    4.9446   -6.0897    3.0757 H   0  0  0  0  0  0  0  0  0  0  0  0
    2.8232   -1.6855    4.6798 N   0  0  0  0  0  0  0  0  0  0  0  0
    1.7402   -0.6822    4.6017 C   0  0  2  0  0  0  0  0  0  0  0  0
    0.8253   -1.0349    3.4870 C   0  0  0  0  0  0  0  0  0  0  0  0
    0.7746   -2.2615    3.2069 O   0  0  0  0  0  0  0  0  0  0  0  0
    2.0071    0.6811    4.9263 C   0  0  0  0  0  0  0  0  0  0  0  0
    2.4952    0.8920    6.3745 C   0  0  0  0  0  0  0  0  0  0  0  0
    1.5215    0.3703    7.3756 C   0  0  0  0  0  0  0  0  0  0  0  0
    0.1987    0.8787    7.3596 N   0  0  0  0  0  0  0  0  0  0  0  0
   -0.2426    2.1857    7.6438 C   0  0  0  0  0  0  0  0  0  0  0  0
   -1.6562    2.4757    7.5647 N   0  0  0  0  0  0  0  0  0  0  0  0
    0.5585    3.1200    7.9747 N   0  0  0  0  0  0  0  0  0  0  0  0
    3.2643   -2.0320    5.5060 H   0  0  0  0  0  0  0  0  0  0  0  0
    1.0673   -1.0980    5.4868 H   0  0  0  0  0  0  0  0  0  0  0  0
    1.0306    1.2660    4.9209 H   0  0  0  0  0  0  0  0  0  0  0  0
    2.7187    1.2325    4.2551 H   0  0  0  0  0  0  0  0  0  0  0  0
    3.4318    0.2548    6.5108 H   0  0  0  0  0  0  0  0  0  0  0  0
    2.8256    1.9052    6.5315 H   0  0  0  0  0  0  0  0  0  0  0  0
    1.9680    0.6215    8.4073 H   0  0  0  0  0  0  0  0  0  0  0  0
    1.5161   -0.7560    7.4112 H   0  0  0  0  0  0  0  0  0  0  0  0
   -0.5759    0.1863    7.0997 H   0  0  0  0  0  0  0  0  0  0  0  0
   -2.0149    3.4240    7.3216 H   0  0  0  0  0  0  0  0  0  0  0  0
   -2.3733    1.7377    7.7502 H   0  0  0  0  0  0  0  0  0  0  0  0
    1.5866    3.0545    8.0760 H   0  0  0  0  0  0  0  0  0  0  0  0
    0.1451    4.0601    8.1667 H   0  0  0  0  0  0  0  0  0  0  0  0
    0.0148   -0.1999    2.6944 N   0  0  0  0  0  0  0  0  0  0  0  0
   -0.8227   -0.8044    1.6927 C   0  0  2  0  0  0  0  0  0  0  0  0
   -0.6284   -0.4473    0.2929 C   0  0  0  0  0  0  0  0  0  0  0  0
    0.2335    0.4353    0.0353 O   0  0  0  0  0  0  0  0  0  0  0  0
   -2.2151   -0.6848    2.2651 C   0  0  0  0  0  0  0  0  0  0  0  0
   -2.5857   -1.5949    3.6915 S   0  0  0  0  0  0  0  0  0  0  0  0
    0.0742    0.7995    2.8892 H   0  0  0  0  0  0  0  0  0  0  0  0
   -0.5559   -1.9206    1.6996 H   0  0  0  0  0  0  0  0  0  0  0  0
   -2.4363    0.4187    2.4809 H   0  0  0  0  0  0  0  0  0  0  0  0
   -2.8855   -0.9429    1.4805 H   0  0  0  0  0  0  0  0  0  0  0  0
   -1.3636   -1.0701   -0.7876 N   0  0  0  0  0  0  0  0  0  0  0  0
   -1.1816   -0.8100   -2.1541 C   0  0  2  0  0  0  0  0  0  0  0  0
   -2.1527   -0.6669   -3.1952 C   0  0  0  0  0  0  0  0  0  0  0  0
   -1.7013   -0.1042   -4.2979 O   0  0  0  0  0  0  0  0  0  0  0  0
   -0.5078   -2.1862   -2.7002 C   0  0  0  0  0  0  0  0  0  0  0  0
   -0.3072   -2.1296   -4.1141 C   0  0  0  0  0  0  0  0  0  0  0  0
    0.7515   -1.5817   -4.8060 C   0  0  0  0  0  0  0  0  0  0  0  0
   -1.2823   -2.7279   -4.9494 C   0  0  0  0  0  0  0  0  0  0  0  0
    0.8612   -1.6070   -6.1797 C   0  0  0  0  0  0  0  0  0  0  0  0
   -1.1761   -2.7555   -6.3006 C   0  0  0  0  0  0  0  0  0  0  0  0
   -0.1058   -2.1982   -6.9630 C   0  0  0  0  0  0  0  0  0  0  0  0
   -0.0793   -2.2711   -8.3331 O   0  0  0  0  0  0  0  0  0  0  0  0
   -2.0768   -1.7705   -0.4904 H   0  0  0  0  0  0  0  0  0  0  0  0
   -0.3523   -0.0534   -2.2229 H   0  0  0  0  0  0  0  0  0  0  0  0
    0.2297   -2.4664   -2.0085 H   0  0  0  0  0  0  0  0  0  0  0  0
   -1.3974   -2.8575   -2.4819 H   0  0  0  0  0  0  0  0  0  0  0  0
    1.5171   -1.1120   -4.2148 H   0  0  0  0  0  0  0  0  0  0  0  0
   -2.1496   -3.1858   -4.4952 H   0  0  0  0  0  0  0  0  0  0  0  0
    1.7110   -1.1641   -6.7135 H   0  0  0  0  0  0  0  0  0  0  0  0
   -1.9767   -3.2470   -6.8787 H   0  0  0  0  0  0  0  0  0  0  0  0
    0.5551   -1.6957   -8.8634 H   0  0  0  0  0  0  0  0  0  0  0  0
   -3.5101   -1.0254   -3.2739 N   0  0  0  0  0  0  0  0  0  0  0  0
   -4.3175   -0.7967   -4.4738 C   0  0  2  0  0  0  0  0  0  0  0  0
   -5.2873    0.2994   -4.3368 C   0  0  0  0  0  0  0  0  0  0  0  0
   -5.4768    1.0060   -3.3284 O   0  0  0  0  0  0  0  0  0  0  0  0
   -4.9359   -2.0606   -5.0096 C   0  0  0  0  0  0  0  0  0  0  0  0
   -3.9332   -1.4771   -2.4628 H   0  0  0  0  0  0  0  0  0  0  0  0
   -3.5824   -0.4400   -5.2543 H   0  0  0  0  0  0  0  0  0  0  0  0
   -6.0404   -2.1030   -4.8892 H   0  0  0  0  0  0  0  0  0  0  0  0
   -4.7709   -2.0815   -6.1073 H   0  0  0  0  0  0  0  0  0  0  0  0
   -4.5177   -2.9216   -4.4635 H   0  0  0  0  0  0  0  0  0  0  0  0
   -6.0991    0.5809   -5.4850 N   0  0  0  0  0  0  0  0  0  0  0  0
   -6.7974   -0.1145   -5.8070 H   0  0  0  0  0  0  0  0  0  0  0  0
   -5.9191    1.5075   -5.9361 H   0  0  0  0  0  0  0  0  0  0  0  0
   -1.1046   -4.2760    2.2901 H   0  0  0  0  0  0  0  0  0  0  0  0
   -2.3158   -6.3409    0.6892 H   0  0  0  0  0  0  0  0  0  0  0  0
   -3.3905   -4.4459   -0.7708 H   0  0  0  0  0  0  0  0  0  0  0  0
   -3.2841   -2.9198    1.1093 H   0  0  0  0  0  0  0  0  0  0  0  0
   -4.9853   -4.9810    2.3213 H   0  0  0  0  0  0  0  0  0  0  0  0
   -3.3583   -5.1718    3.8213 H   0  0  0  0  0  0  0  0  0  0  0  0
   -6.1708   -3.0246    1.0679 H   0  0  0  0  0  0  0  0  0  0  0  0
   -6.4205   -3.2164   -1.0816 H   0  0  0  0  0  0  0  0  0  0  0  0
   -2.4867    4.6697   -0.1189 H   0  0  0  0  0  0  0  0  0  0  0  0
   -2.6175    3.2256    2.2951 H   0  0  0  0  0  0  0  0  0  0  0  0
    0.9393    4.2057   -2.5108 H   0  0  0  0  0  0  0  0  0  0  0  0
    0.1008    2.8459   -3.8711 H   0  0  0  0  0  0  0  0  0  0  0  0
    2.4129   -2.3848   -2.3751 H   0  0  0  0  0  0  0  0  0  0  0  0
    1.9064   -1.5701   -0.4027 H   0  0  0  0  0  0  0  0  0  0  0  0
  1  2  1  0
  1 11  1  6
  1 12  1  0
  1 13  1  0
  2  3  1  0
  2  7  1  0
  3  4  1  0
  3 10  1  0
  4  5  1  0
  4 14  1  0
  5  6  1  0
  5  9  1  0
  6  7  1  0
  6 15  1  0
  7  8  1  0
  8 16  1  1
  8 17  1  0
  8171  1  0
  9 19  1  0
  9 21  1  0
 10 18  1  6
 10 20  1  0
 10118  1  0
 23 38  1  0
 38 39  1  0
 38 46  1  0
 39 40  1  0
 39 44  1  0
 39 47  1  6
 40 41  1  0
 40 48  1  6
 40 49  1  0
 41 42  1  0
 41 50  1  6
 41 51  1  0
 42 43  1  0
 42 52  1  6
 42 53  1  0
 43 54  1  6
 43 55  1  0
 44 45  1  0
 44 57  1  0
 57 58  1  0
 57 65  1  0
 58 59  1  0
 58 61  1  0
 58 66  1  6
 59 60  1  0
 59 76  1  0
 61 62  1  0
 61 67  1  1
 61 68  1  0
 62 63  1  0
 62 69  1  1
 62 70  1  0
 63 64  1  0
 63 71  1  1
 63 72  1  0
 64 73  1  1
 64 74  1  0
 64 75  1  0
 78 97  1  0
 97 98  1  0
 97104  1  0
 98 99  1  0
 98101  1  0
 98105  1  6
 99100  1  0
 99113  1  0
101102  1  0
101106  1  1
101107  1  0
102103  1  0
102108  1  1
102109  1  0
103110  1  1
103111  1  0
199207  1  0
207208  1  0
207209  1  0
 22 21  1  0
 23 22  1  0
 24 23  2  0
 25 22  1  0
 26 25  1  0
 27 26  1  0
 28 26  2  0
 29 27  2  0
 30 28  1  0
 30 29  1  0
 31 21  1  0
 22 32  1  6
 33 25  1  0
 34 25  1  0
 35 28  1  0
 36 29  1  0
 37 30  1  0
 56 43  1  0
 77 76  1  0
 78 77  1  0
 79 78  2  0
 80 77  1  0
 81 80  1  0
 82 81  2  0
 83 81  1  0
 84 82  1  0
 85 83  2  0
 86 85  1  0
 86 84  2  0
 87 86  1  0
 88 76  1  0
 77 89  1  6
 90 80  1  0
 91 80  1  0
 92 82  1  0
 93 83  1  0
 94 84  1  0
 95 85  1  0
 96 87  1  0
112103  1  0
114113  1  0
115114  1  0
116115  2  0
117114  1  0
118117  1  0
119113  1  0
114120  1  1
121117  1  0
122117  1  0
123115  1  0
124123  1  0
125124  1  0
126125  2  0
127124  1  0
128127  1  0
129127  1  0
130128  1  0
131123  1  0
124132  1  1
127133  1  6
134128  1  0
135128  1  0
136129  1  0
137129  1  0
138129  1  0
139130  1  0
140130  1  0
141130  1  0
142125  1  0
143142  1  0
144143  1  0
145144  2  0
146143  1  0
147146  1  0
148147  1  0
149148  1  0
150149  1  0
151150  1  0
152150  2  0
153142  1  0
143154  1  1
155146  1  0
156146  1  0
157147  1  0
158147  1  0
159148  1  0
160148  1  0
161149  1  0
162151  1  0
163151  1  0
164152  1  0
165152  1  0
166144  1  0
167166  1  0
168167  1  0
169168  2  0
170167  1  0
171170  1  0
172166  1  0
167173  1  6
174170  1  0
175170  1  0
176168  1  0
177176  1  0
178177  1  0
179178  2  0
180177  1  0
181180  1  0
182181  2  0
183181  1  0
184182  1  0
185183  2  0
186185  1  0
186184  2  0
187186  1  0
188176  1  0
177189  1  1
190180  1  0
191180  1  0
192182  1  0
193183  1  0
194184  1  0
195185  1  0
196187  1  0
197178  1  0
198197  1  0
199198  1  0
200199  2  0
201198  1  0
202197  1  0
198203  1  6
204201  1  0
205201  1  0
206201  1  0
  2210  1  6
  3211  1  1
  4212  1  0
  5213  1  0
  6214  1  0
  7215  1  0
  9216  1  0
 19217  1  0
 44218  1  0
 45219  1  0
 59220  1  0
 60221  1  0
 99222  1  0
100223  1  0
M  CHG  3  43   1 103   1 152   1
M  END
$$$$
BP70
     RDKit          3D

223228  0  0  0  0  0  0  0  0999 V2000
    4.0584   -5.2535    1.0982 C   0  0  2  0  0  0  0  0  0  0  0  0
    3.7299   -4.3048    2.1991 C   0  0  1  0  0  0  0  0  0  0  0  0
    4.2992   -2.9085    1.9696 C   0  0  1  0  0  0  0  0  0  0  0  0
    4.0300   -2.0194    3.1278 C   0  0  0  0  0  0  0  0  0  0  0  0
    2.8365   -2.3008    3.9830 C   0  0  0  0  0  0  0  0  0  0  0  0
    2.0183   -3.4931    3.7116 C   0  0  0  0  0  0  0  0  0  0  0  0
    2.3320   -4.4049    2.5929 C   0  0  0  0  0  0  0  0  0  0  0  0
    1.2678   -4.3610    1.5721 C   0  0  2  0  0  0  0  0  0  0  0  0
    2.1110   -1.1202    4.5928 C   0  0  0  0  0  0  0  0  0  0  0  0
    5.7309   -3.1822    1.6038 C   0  0  1  0  0  0  0  0  0  0  0  0
    3.1688   -5.9415    0.9483 H   0  0  0  0  0  0  0  0  0  0  0  0
    4.9191   -5.9359    1.3041 H   0  0  0  0  0  0  0  0  0  0  0  0
    4.1837   -4.7099    0.1667 H   0  0  0  0  0  0  0  0  0  0  0  0
    3.8799   -0.9339    2.8533 H   0  0  0  0  0  0  0  0  0  0  0  0
    0.9464   -3.1235    3.5297 H   0  0  0  0  0  0  0  0  0  0  0  0
    0.7204   -3.3876    1.8046 H   0  0  0  0  0  0  0  0  0  0  0  0
    0.5551   -5.2102    1.8461 H   0  0  0  0  0  0  0  0  0  0  0  0
    6.2288   -3.3486    2.6294 H   0  0  0  0  0  0  0  0  0  0  0  0
    3.1570   -0.2625    5.1374 O   0  0  0  0  0  0  0  0  0  0  0  0
    5.8566   -4.2359    1.1784 H   0  0  0  0  0  0  0  0  0  0  0  0
    1.1677   -0.3421    4.0761 N   0  0  0  0  0  0  0  0  0  0  0  0
   -0.1397   -0.4214    3.6467 C   0  0  2  0  0  0  0  0  0  0  0  0
   -0.6116    0.8897    2.9783 C   0  0  0  0  0  0  0  0  0  0  0  0
    0.0039    1.9244    3.1412 O   0  0  0  0  0  0  0  0  0  0  0  0
   -1.2416   -0.5763    4.6643 C   0  0  0  0  0  0  0  0  0  0  0  0
   -1.2787   -1.7385    5.5375 C   0  0  0  0  0  0  0  0  0  0  0  0
   -0.5563   -2.8249    5.7192 N   0  0  0  0  0  0  0  0  0  0  0  0
   -2.2990   -1.8379    6.5013 C   0  0  0  0  0  0  0  0  0  0  0  0
   -1.0559   -3.5558    6.6997 C   0  0  0  0  0  0  0  0  0  0  0  0
   -2.1418   -2.9550    7.1959 N   0  0  0  0  0  0  0  0  0  0  0  0
    1.5444    0.6196    3.8059 H   0  0  0  0  0  0  0  0  0  0  0  0
   -0.3081   -1.1742    2.8808 H   0  0  0  0  0  0  0  0  0  0  0  0
   -1.4176    0.3889    5.2177 H   0  0  0  0  0  0  0  0  0  0  0  0
   -2.2286   -0.6499    4.0894 H   0  0  0  0  0  0  0  0  0  0  0  0
   -3.1044   -1.1280    6.6777 H   0  0  0  0  0  0  0  0  0  0  0  0
   -0.6754   -4.5148    7.0847 H   0  0  0  0  0  0  0  0  0  0  0  0
   -2.7659   -3.2551    7.9662 H   0  0  0  0  0  0  0  0  0  0  0  0
   -1.7680    0.9322    2.1498 N   0  0  0  0  0  0  0  0  0  0  0  0
   -2.3853    2.0385    1.5467 C   0  0  1  0  0  0  0  0  0  0  0  0
   -2.1218    3.3398    2.3893 C   0  0  2  0  0  0  0  0  0  0  0  0
   -2.6646    3.2381    3.7732 C   0  0  2  0  0  0  0  0  0  0  0  0
   -2.3341    4.5528    4.4667 C   0  0  1  0  0  0  0  0  0  0  0  0
   -2.8400    4.5573    5.8452 N   0  0  2  0  0  0  0  0  0  0  0  0
   -2.1827    2.5130    0.1787 C   0  0  0  0  0  0  0  0  0  0  0  0
   -0.8746    2.9103    0.0599 O   0  0  0  0  0  0  0  0  0  0  0  0
   -2.2029   -0.0062    2.0195 H   0  0  0  0  0  0  0  0  0  0  0  0
   -3.4979    1.9402    1.7775 H   0  0  0  0  0  0  0  0  0  0  0  0
   -2.7931    4.0865    1.8839 H   0  0  0  0  0  0  0  0  0  0  0  0
   -1.1144    3.7058    2.2645 H   0  0  0  0  0  0  0  0  0  0  0  0
   -2.3912    2.3571    4.3325 H   0  0  0  0  0  0  0  0  0  0  0  0
   -3.8000    3.2340    3.7772 H   0  0  0  0  0  0  0  0  0  0  0  0
   -1.2289    4.6880    4.5703 H   0  0  0  0  0  0  0  0  0  0  0  0
   -2.6923    5.4184    3.8934 H   0  0  0  0  0  0  0  0  0  0  0  0
   -2.1244    4.0771    6.4955 H   0  0  0  0  0  0  0  0  0  0  0  0
   -3.7786    4.0525    5.9075 H   0  0  0  0  0  0  0  0  0  0  0  0
   -2.9509    5.5766    6.1591 H   0  0  0  0  0  0  0  0  0  0  0  0
   -2.5048    1.7297   -0.9713 N   0  0  0  0  0  0  0  0  0  0  0  0
   -2.4788    2.3161   -2.2671 C   0  0  2  0  0  0  0  0  0  0  0  0
   -1.2467    2.2253   -3.1459 C   0  0  0  0  0  0  0  0  0  0  0  0
   -1.5333    2.9788   -4.3260 O   0  0  0  0  0  0  0  0  0  0  0  0
   -3.1659    3.6561   -2.3200 C   0  0  2  0  0  0  0  0  0  0  0  0
   -4.6268    3.5603   -1.9467 C   0  0  1  0  0  0  0  0  0  0  0  0
   -5.4294    2.6733   -2.8723 C   0  0  1  0  0  0  0  0  0  0  0  0
   -6.8653    2.7475   -2.3188 C   0  0  2  0  0  0  0  0  0  0  0  0
   -1.9389    0.8248   -0.9788 H   0  0  0  0  0  0  0  0  0  0  0  0
   -3.2116    1.6433   -2.8533 H   0  0  0  0  0  0  0  0  0  0  0  0
   -3.1479    4.1518   -3.3055 H   0  0  0  0  0  0  0  0  0  0  0  0
   -2.6401    4.4078   -1.6619 H   0  0  0  0  0  0  0  0  0  0  0  0
   -4.7777    3.0893   -0.9336 H   0  0  0  0  0  0  0  0  0  0  0  0
   -5.1175    4.5608   -1.9753 H   0  0  0  0  0  0  0  0  0  0  0  0
   -5.3864    2.9487   -3.9245 H   0  0  0  0  0  0  0  0  0  0  0  0
   -5.1628    1.5894   -2.7065 H   0  0  0  0  0  0  0  0  0  0  0  0
   -7.1572    3.7904   -2.1653 H   0  0  0  0  0  0  0  0  0  0  0  0
   -6.8478    2.2408   -1.3306 H   0  0  0  0  0  0  0  0  0  0  0  0
   -7.5728    2.1754   -2.9582 H   0  0  0  0  0  0  0  0  0  0  0  0
   -1.0258    0.9029   -3.5433 N   0  0  0  0  0  0  0  0  0  0  0  0
   -0.2050    0.2056   -4.3215 C   0  0  2  0  0  0  0  0  0  0  0  0
    1.1745   -0.0564   -4.5137 C   0  0  0  0  0  0  0  0  0  0  0  0
    1.4347   -0.9627   -5.4434 O   0  0  0  0  0  0  0  0  0  0  0  0
   -0.8450    0.1505   -5.7611 C   0  0  0  0  0  0  0  0  0  0  0  0
   -2.1377   -0.5315   -5.7928 C   0  0  0  0  0  0  0  0  0  0  0  0
   -3.3756    0.0286   -5.6456 C   0  0  0  0  0  0  0  0  0  0  0  0
   -2.1169   -1.9178   -6.0067 C   0  0  0  0  0  0  0  0  0  0  0  0
   -4.5557   -0.6963   -5.6977 C   0  0  0  0  0  0  0  0  0  0  0  0
   -3.3020   -2.6491   -6.0600 C   0  0  0  0  0  0  0  0  0  0  0  0
   -4.5254   -2.0366   -5.9056 C   0  0  0  0  0  0  0  0  0  0  0  0
   -5.7346   -2.7353   -5.9566 O   0  0  0  0  0  0  0  0  0  0  0  0
   -1.9990    0.4599   -3.5718 H   0  0  0  0  0  0  0  0  0  0  0  0
   -0.5774   -0.9067   -4.0269 H   0  0  0  0  0  0  0  0  0  0  0  0
   -1.0290    1.1878   -6.0959 H   0  0  0  0  0  0  0  0  0  0  0  0
   -0.1371   -0.3502   -6.4394 H   0  0  0  0  0  0  0  0  0  0  0  0
   -3.4767    1.0835   -5.4815 H   0  0  0  0  0  0  0  0  0  0  0  0
   -1.1676   -2.4305   -6.1346 H   0  0  0  0  0  0  0  0  0  0  0  0
   -5.5059   -0.2064   -5.5721 H   0  0  0  0  0  0  0  0  0  0  0  0
   -3.3205   -3.7204   -6.2236 H   0  0  0  0  0  0  0  0  0  0  0  0
   -5.8167   -3.6789   -5.6073 H   0  0  0  0  0  0  0  0  0  0  0  0
    2.4131    0.3850   -3.9808 N   0  0  0  0  0  0  0  0  0  0  0  0
    3.7084   -0.1456   -4.4188 C   0  0  2  0  0  0  0  0  0  0  0  0
    4.4420   -0.7806   -3.2615 C   0  0  0  0  0  0  0  0  0  0  0  0
    5.6663   -1.3647   -3.7832 O   0  0  0  0  0  0  0  0  0  0  0  0
    4.5433    0.8988   -5.1107 C   0  0  2  0  0  0  0  0  0  0  0  0
    3.8654    1.4529   -6.3419 C   0  0  1  0  0  0  0  0  0  0  0  0
    3.6175    0.4177   -7.3519 N   0  0  2  0  0  0  0  0  0  0  0  0
    2.4010    1.1007   -3.2867 H   0  0  0  0  0  0  0  0  0  0  0  0
    3.6071   -0.9691   -5.1647 H   0  0  0  0  0  0  0  0  0  0  0  0
    5.4994    0.4696   -5.5053 H   0  0  0  0  0  0  0  0  0  0  0  0
    4.8505    1.7032   -4.4211 H   0  0  0  0  0  0  0  0  0  0  0  0
    2.8303    1.8382   -6.0746 H   0  0  0  0  0  0  0  0  0  0  0  0
    4.4615    2.2754   -6.7970 H   0  0  0  0  0  0  0  0  0  0  0  0
    2.5849    0.2989   -7.5510 H   0  0  0  0  0  0  0  0  0  0  0  0
    4.0719   -0.5121   -7.0700 H   0  0  0  0  0  0  0  0  0  0  0  0
    4.1012    0.7447   -8.2651 H   0  0  0  0  0  0  0  0  0  0  0  0
    4.9380    0.0479   -2.2217 N   0  0  0  0  0  0  0  0  0  0  0  0
    5.3725   -0.5218   -0.9935 C   0  0  2  0  0  0  0  0  0  0  0  0
    5.5770    0.6327   -0.0328 C   0  0  0  0  0  0  0  0  0  0  0  0
    5.6007    1.7537   -0.5303 O   0  0  0  0  0  0  0  0  0  0  0  0
    6.4449   -1.5233   -0.9038 C   0  0  0  0  0  0  0  0  0  0  0  0
    6.7601   -2.1319    0.7261 S   0  0  0  0  0  0  0  0  0  0  0  0
    4.1647    0.7150   -1.9887 H   0  0  0  0  0  0  0  0  0  0  0  0
    4.4550   -1.0422   -0.5890 H   0  0  0  0  0  0  0  0  0  0  0  0
    6.2314   -2.3327   -1.6224 H   0  0  0  0  0  0  0  0  0  0  0  0
    7.3791   -1.0496   -1.2722 H   0  0  0  0  0  0  0  0  0  0  0  0
    5.7428    0.5414    1.3647 N   0  0  0  0  0  0  0  0  0  0  0  0
    5.6300    1.8347    2.1241 C   0  0  2  0  0  0  0  0  0  0  0  0
    4.2667    2.3612    1.6471 C   0  0  0  0  0  0  0  0  0  0  0  0
    3.8573    3.4878    1.8589 O   0  0  0  0  0  0  0  0  0  0  0  0
    6.7066    2.7864    1.8725 C   0  0  2  0  0  0  0  0  0  0  0  0
    8.0840    2.2838    2.2199 C   0  0  0  0  0  0  0  0  0  0  0  0
    6.4686    3.9930    2.7959 C   0  0  0  0  0  0  0  0  0  0  0  0
    8.2519    1.9159    3.6555 C   0  0  0  0  0  0  0  0  0  0  0  0
    5.9242   -0.3015    1.8327 H   0  0  0  0  0  0  0  0  0  0  0  0
    5.5305    1.5596    3.1708 H   0  0  0  0  0  0  0  0  0  0  0  0
    6.7183    3.2033    0.8607 H   0  0  0  0  0  0  0  0  0  0  0  0
    8.3731    1.4660    1.5249 H   0  0  0  0  0  0  0  0  0  0  0  0
    8.7931    3.1175    2.0032 H   0  0  0  0  0  0  0  0  0  0  0  0
    5.8716    3.7148    3.6949 H   0  0  0  0  0  0  0  0  0  0  0  0
    7.4139    4.4493    3.1077 H   0  0  0  0  0  0  0  0  0  0  0  0
    5.8936    4.7822    2.2604 H   0  0  0  0  0  0  0  0  0  0  0  0
    7.3511    1.9797    4.2743 H   0  0  0  0  0  0  0  0  0  0  0  0
    9.0390    2.5311    4.1694 H   0  0  0  0  0  0  0  0  0  0  0  0
    8.5426    0.8262    3.6875 H   0  0  0  0  0  0  0  0  0  0  0  0
    3.4222    1.4820    0.9207 N   0  0  0  0  0  0  0  0  0  0  0  0
    2.2302    1.7527    0.1990 C   0  0  2  0  0  0  0  0  0  0  0  0
    1.5818    0.6085   -0.4098 C   0  0  0  0  0  0  0  0  0  0  0  0
    0.7733    0.7718   -1.3187 O   0  0  0  0  0  0  0  0  0  0  0  0
    2.2291    3.0523   -0.5536 C   0  0  0  0  0  0  0  0  0  0  0  0
    3.1990    3.4794   -1.5357 C   0  0  0  0  0  0  0  0  0  0  0  0
    2.6789    4.8404   -2.0876 C   0  0  0  0  0  0  0  0  0  0  0  0
    2.6133    5.7953   -1.0158 N   0  0  0  0  0  0  0  0  0  0  0  0
    2.1052    7.0945   -1.3397 C   0  0  0  0  0  0  0  0  0  0  0  0
    1.9843    8.1268   -0.3847 N   0  0  0  0  0  0  0  0  0  0  0  0
    1.7403    7.3354   -2.5569 N   0  0  0  0  0  0  0  0  0  0  0  0
    3.6904    0.4792    1.0053 H   0  0  0  0  0  0  0  0  0  0  0  0
    1.4892    2.0985    1.0308 H   0  0  0  0  0  0  0  0  0  0  0  0
    1.9859    3.9157    0.1197 H   0  0  0  0  0  0  0  0  0  0  0  0
    1.2635    2.9586   -1.1746 H   0  0  0  0  0  0  0  0  0  0  0  0
    3.4248    2.9119   -2.4089 H   0  0  0  0  0  0  0  0  0  0  0  0
    4.1911    3.8250   -1.1171 H   0  0  0  0  0  0  0  0  0  0  0  0
    3.4443    5.1877   -2.8243 H   0  0  0  0  0  0  0  0  0  0  0  0
    1.6829    4.6875   -2.5333 H   0  0  0  0  0  0  0  0  0  0  0  0
    2.9026    5.6510   -0.0345 H   0  0  0  0  0  0  0  0  0  0  0  0
    1.6320    7.9431    0.5668 H   0  0  0  0  0  0  0  0  0  0  0  0
    2.2473    9.1156   -0.6022 H   0  0  0  0  0  0  0  0  0  0  0  0
    1.3579    8.2649   -2.8683 H   0  0  0  0  0  0  0  0  0  0  0  0
    1.8055    6.6106   -3.2998 H   0  0  0  0  0  0  0  0  0  0  0  0
    1.7322   -0.8109   -0.0795 N   0  0  0  0  0  0  0  0  0  0  0  0
    1.2535   -1.8277   -0.9856 C   0  0  2  0  0  0  0  0  0  0  0  0
   -0.1036   -2.3819   -0.8234 C   0  0  0  0  0  0  0  0  0  0  0  0
   -0.3646   -3.3466   -1.6675 O   0  0  0  0  0  0  0  0  0  0  0  0
    2.1439   -3.0786   -1.0697 C   0  0  0  0  0  0  0  0  0  0  0  0
    1.5042   -4.4299   -0.1316 S   0  0  0  0  0  0  0  0  0  0  0  0
    2.1742   -0.9413    0.8287 H   0  0  0  0  0  0  0  0  0  0  0  0
    1.2672   -1.3761   -1.9867 H   0  0  0  0  0  0  0  0  0  0  0  0
    3.1993   -2.8835   -1.0378 H   0  0  0  0  0  0  0  0  0  0  0  0
    1.9818   -3.3935   -2.1653 H   0  0  0  0  0  0  0  0  0  0  0  0
   -1.1318   -2.0720    0.0575 N   0  0  0  0  0  0  0  0  0  0  0  0
   -2.3745   -2.8790   -0.0040 C   0  0  2  0  0  0  0  0  0  0  0  0
   -3.5785   -2.1362   -0.3164 C   0  0  0  0  0  0  0  0  0  0  0  0
   -3.7748   -0.9123   -0.1909 O   0  0  0  0  0  0  0  0  0  0  0  0
   -2.4881   -3.5416    1.3780 C   0  0  0  0  0  0  0  0  0  0  0  0
   -3.6474   -4.3918    1.5965 C   0  0  0  0  0  0  0  0  0  0  0  0
   -3.7022   -5.7432    1.2480 C   0  0  0  0  0  0  0  0  0  0  0  0
   -4.7507   -3.8318    2.2494 C   0  0  0  0  0  0  0  0  0  0  0  0
   -4.8391   -6.5035    1.5541 C   0  0  0  0  0  0  0  0  0  0  0  0
   -5.8726   -4.5641    2.5572 C   0  0  0  0  0  0  0  0  0  0  0  0
   -5.9184   -5.9185    2.2050 C   0  0  0  0  0  0  0  0  0  0  0  0
   -7.0390   -6.6967    2.5009 O   0  0  0  0  0  0  0  0  0  0  0  0
   -0.9945   -1.3017    0.7035 H   0  0  0  0  0  0  0  0  0  0  0  0
   -2.1666   -3.7062   -0.7051 H   0  0  0  0  0  0  0  0  0  0  0  0
   -1.5776   -4.1475    1.5793 H   0  0  0  0  0  0  0  0  0  0  0  0
   -2.4810   -2.7316    2.1599 H   0  0  0  0  0  0  0  0  0  0  0  0
   -2.8712   -6.2100    0.7413 H   0  0  0  0  0  0  0  0  0  0  0  0
   -4.7622   -2.7833    2.5450 H   0  0  0  0  0  0  0  0  0  0  0  0
   -4.8389   -7.5540    1.2675 H   0  0  0  0  0  0  0  0  0  0  0  0
   -6.7239   -4.1187    3.0692 H   0  0  0  0  0  0  0  0  0  0  0  0
   -7.7166   -6.4526    3.2092 H   0  0  0  0  0  0  0  0  0  0  0  0
   -4.6987   -2.8865   -0.8571 N   0  0  0  0  0  0  0  0  0  0  0  0
   -5.8944   -2.1257   -1.2046 C   0  0  2  0  0  0  0  0  0  0  0  0
   -7.0906   -2.8936   -0.8546 C   0  0  0  0  0  0  0  0  0  0  0  0
   -8.2176   -2.3154   -1.0172 O   0  0  0  0  0  0  0  0  0  0  0  0
   -5.8696   -1.8437   -2.7201 C   0  0  0  0  0  0  0  0  0  0  0  0
   -4.6203   -3.9171   -0.9820 H   0  0  0  0  0  0  0  0  0  0  0  0
   -5.8701   -1.1513   -0.6978 H   0  0  0  0  0  0  0  0  0  0  0  0
   -5.3786   -0.8730   -2.8543 H   0  0  0  0  0  0  0  0  0  0  0  0
   -6.9062   -1.8195   -3.0487 H   0  0  0  0  0  0  0  0  0  0  0  0
   -5.3366   -2.6911   -3.2202 H   0  0  0  0  0  0  0  0  0  0  0  0
   -7.1153   -4.2133   -0.3560 N   0  0  0  0  0  0  0  0  0  0  0  0
   -7.9141   -4.5268    0.2602 H   0  0  0  0  0  0  0  0  0  0  0  0
   -6.3581   -4.9050   -0.5788 H   0  0  0  0  0  0  0  0  0  0  0  0
    4.3517   -4.6650    3.0977 H   0  0  0  0  0  0  0  0  0  0  0  0
    3.8747   -2.4465    1.0705 H   0  0  0  0  0  0  0  0  0  0  0  0
    5.0009   -1.9539    3.6767 H   0  0  0  0  0  0  0  0  0  0  0  0
    3.3935   -2.6621    4.9428 H   0  0  0  0  0  0  0  0  0  0  0  0
    1.8463   -4.1444    4.6378 H   0  0  0  0  0  0  0  0  0  0  0  0
    2.2681   -5.4713    3.0769 H   0  0  0  0  0  0  0  0  0  0  0  0
    1.7717   -1.5815    5.5993 H   0  0  0  0  0  0  0  0  0  0  0  0
    3.6671   -0.7584    5.8191 H   0  0  0  0  0  0  0  0  0  0  0  0
   -2.7671    3.4946    0.1146 H   0  0  0  0  0  0  0  0  0  0  0  0
   -0.6833    3.8482    0.1955 H   0  0  0  0  0  0  0  0  0  0  0  0
   -0.4153    2.7924   -2.7098 H   0  0  0  0  0  0  0  0  0  0  0  0
   -2.4340    2.9099   -4.6342 H   0  0  0  0  0  0  0  0  0  0  0  0
    3.9046   -1.6279   -2.8343 H   0  0  0  0  0  0  0  0  0  0  0  0
    6.2701   -0.5888   -3.8973 H   0  0  0  0  0  0  0  0  0  0  0  0
  1  2  1  0
  1 11  1  6
  1 12  1  0
  1 13  1  0
  2  3  1  0
  2  7  1  0
  3  4  1  0
  3 10  1  0
  4  5  1  0
  4 14  1  0
  5  6  1  0
  5  9  1  0
  6  7  1  0
  6 15  1  0
  7  8  1  0
  8 16  1  6
  8 17  1  0
  8171  1  0
  9 19  1  0
  9 21  1  0
 10 18  1  1
 10 20  1  0
 10118  1  0
 23 38  1  0
 38 39  1  0
 38 46  1  0
 39 40  1  0
 39 44  1  0
 39 47  1  6
 40 41  1  0
 40 48  1  6
 40 49  1  0
 41 42  1  0
 41 50  1  1
 41 51  1  0
 42 43  1  0
 42 52  1  1
 42 53  1  0
 43 54  1  1
 43 55  1  0
 44 45  1  0
 44 57  1  0
 57 58  1  0
 57 65  1  0
 58 59  1  0
 58 61  1  0
 58 66  1  6
 59 60  1  0
 59 76  1  0
 61 62  1  0
 61 67  1  6
 61 68  1  0
 62 63  1  0
 62 69  1  1
 62 70  1  0
 63 64  1  0
 63 71  1  6
 63 72  1  0
 64 73  1  1
 64 74  1  0
 64 75  1  0
 78 97  1  0
 97 98  1  0
 97104  1  0
 98 99  1  0
 98101  1  0
 98105  1  6
 99100  1  0
 99113  1  0
101102  1  0
101106  1  6
101107  1  0
102103  1  0
102108  1  1
102109  1  0
103110  1  6
103111  1  0
199207  1  0
207208  1  0
207209  1  0
 22 21  1  0
 23 22  1  0
 24 23  2  0
 25 22  1  0
 26 25  1  0
 27 26  1  0
 28 26  2  0
 29 27  2  0
 30 28  1  0
 30 29  1  0
 31 21  1  0
 22 32  1  6
 33 25  1  0
 34 25  1  0
 35 28  1  0
 36 29  1  0
 37 30  1  0
 56 43  1  0
 77 76  1  0
 78 77  1  0
 79 78  2  0
 80 77  1  0
 81 80  1  0
 82 81  2  0
 83 81  1  0
 84 82  1  0
 85 83  2  0
 86 85  1  0
 86 84  2  0
 87 86  1  0
 88 76  1  0
 77 89  1  1
 90 80  1  0
 91 80  1  0
 92 82  1  0
 93 83  1  0
 94 84  1  0
 95 85  1  0
 96 87  1  0
112103  1  0
114113  1  0
115114  1  0
116115  2  0
117114  1  0
118117  1  0
119113  1  0
114120  1  1
121117  1  0
122117  1  0
123115  1  0
124123  1  0
125124  1  0
126125  2  0
127124  1  0
128127  1  0
129127  1  0
130128  1  0
131123  1  0
124132  1  1
127133  1  6
134128  1  0
135128  1  0
136129  1  0
137129  1  0
138129  1  0
139130  1  0
140130  1  0
141130  1  0
142125  1  0
143142  1  0
144143  1  0
145144  2  0
146143  1  0
147146  1  0
148147  1  0
149148  1  0
150149  1  0
151150  1  0
152150  2  0
153142  1  0
143154  1  1
155146  1  0
156146  1  0
157147  1  0
158147  1  0
159148  1  0
160148  1  0
161149  1  0
162151  1  0
163151  1  0
164152  1  0
165152  1  0
166144  1  0
167166  1  0
168167  1  0
169168  2  0
170167  1  0
171170  1  0
172166  1  0
167173  1  6
174170  1  0
175170  1  0
176168  1  0
177176  1  0
178177  1  0
179178  2  0
180177  1  0
181180  1  0
182181  2  0
183181  1  0
184182  1  0
185183  2  0
186185  1  0
186184  2  0
187186  1  0
188176  1  0
177189  1  6
190180  1  0
191180  1  0
192182  1  0
193183  1  0
194184  1  0
195185  1  0
196187  1  0
197178  1  0
198197  1  0
199198  1  0
200199  2  0
201198  1  0
202197  1  0
198203  1  1
204201  1  0
205201  1  0
206201  1  0
  2210  1  1
  3211  1  6
  4212  1  0
  5213  1  0
  6214  1  0
  7215  1  0
  9216  1  0
 19217  1  0
 44218  1  0
 45219  1  0
 59220  1  0
 60221  1  0
 99222  1  0
100223  1  0
M  CHG  3  43   1 103   1 152   1
M  END
$$$$
BP70
     RDKit          3D

223228  0  0  0  0  0  0  0  0999 V2000
   -0.8852   -1.7944    3.8749 C   0  0  2  0  0  0  0  0  0  0  0  0
   -2.1211   -2.0065    3.0625 C   0  0  1  0  0  0  0  0  0  0  0  0
   -2.1824   -1.2528    1.7656 C   0  0  1  0  0  0  0  0  0  0  0  0
   -3.7054   -1.0249    1.5695 C   0  0  0  0  0  0  0  0  0  0  0  0
   -4.2629   -2.3904    1.2387 C   0  0  0  0  0  0  0  0  0  0  0  0
   -3.3472   -3.4855    1.5296 C   0  0  0  0  0  0  0  0  0  0  0  0
   -2.6076   -3.3783    2.8867 C   0  0  0  0  0  0  0  0  0  0  0  0
   -1.8151   -4.5928    2.9491 C   0  0  2  0  0  0  0  0  0  0  0  0
   -4.4824   -2.3072   -0.2942 C   0  0  0  0  0  0  0  0  0  0  0  0
   -1.4871    0.0839    1.6691 C   0  0  1  0  0  0  0  0  0  0  0  0
   -1.1196   -1.1113    4.7531 H   0  0  0  0  0  0  0  0  0  0  0  0
   -0.1217   -1.2091    3.3226 H   0  0  0  0  0  0  0  0  0  0  0  0
   -0.5308   -2.7098    4.3539 H   0  0  0  0  0  0  0  0  0  0  0  0
   -3.8826   -0.2474    0.8449 H   0  0  0  0  0  0  0  0  0  0  0  0
   -3.9685   -4.4281    1.6295 H   0  0  0  0  0  0  0  0  0  0  0  0
   -2.2558   -5.3906    2.2753 H   0  0  0  0  0  0  0  0  0  0  0  0
   -2.0191   -5.0700    3.9778 H   0  0  0  0  0  0  0  0  0  0  0  0
   -2.1292    0.7563    1.0534 H   0  0  0  0  0  0  0  0  0  0  0  0
   -5.3543   -3.3443   -0.6221 O   0  0  0  0  0  0  0  0  0  0  0  0
   -1.3451    0.5713    2.6546 H   0  0  0  0  0  0  0  0  0  0  0  0
   -5.0799   -1.0172   -0.5080 N   0  0  0  0  0  0  0  0  0  0  0  0
   -5.4028   -0.6132   -1.8278 C   0  0  2  0  0  0  0  0  0  0  0  0
   -5.9983    0.7578   -1.7424 C   0  0  0  0  0  0  0  0  0  0  0  0
   -6.4571    1.3404   -2.7473 O   0  0  0  0  0  0  0  0  0  0  0  0
   -6.2322   -1.5718   -2.6273 C   0  0  0  0  0  0  0  0  0  0  0  0
   -6.5557   -1.0543   -4.0055 C   0  0  0  0  0  0  0  0  0  0  0  0
   -7.6311   -0.3306   -4.3808 N   0  0  0  0  0  0  0  0  0  0  0  0
   -5.8166   -1.2016   -5.1632 C   0  0  0  0  0  0  0  0  0  0  0  0
   -7.6058   -0.0237   -5.6823 C   0  0  0  0  0  0  0  0  0  0  0  0
   -6.4646   -0.5696   -6.1764 N   0  0  0  0  0  0  0  0  0  0  0  0
   -5.9154   -0.8764    0.1206 H   0  0  0  0  0  0  0  0  0  0  0  0
   -4.4720   -0.4462   -2.4618 H   0  0  0  0  0  0  0  0  0  0  0  0
   -7.1836   -1.7586   -2.1051 H   0  0  0  0  0  0  0  0  0  0  0  0
   -5.6848   -2.5302   -2.7550 H   0  0  0  0  0  0  0  0  0  0  0  0
   -4.8664   -1.7285   -5.2728 H   0  0  0  0  0  0  0  0  0  0  0  0
   -8.3711    0.5467   -6.1674 H   0  0  0  0  0  0  0  0  0  0  0  0
   -6.1951   -0.4831   -7.1777 H   0  0  0  0  0  0  0  0  0  0  0  0
   -6.0889    1.5082   -0.5413 N   0  0  0  0  0  0  0  0  0  0  0  0
   -6.7217    2.7979   -0.4004 C   0  0  1  0  0  0  0  0  0  0  0  0
   -7.6198    2.7341    0.8000 C   0  0  2  0  0  0  0  0  0  0  0  0
   -8.3885    3.9593    1.1242 C   0  0  2  0  0  0  0  0  0  0  0  0
   -9.2301    3.6157    2.3708 C   0  0  1  0  0  0  0  0  0  0  0  0
  -10.0973    2.4913    1.9813 N   0  0  2  0  0  0  0  0  0  0  0  0
   -5.6969    3.9267   -0.1867 C   0  0  0  0  0  0  0  0  0  0  0  0
   -4.9519    3.5675    0.9189 O   0  0  0  0  0  0  0  0  0  0  0  0
   -5.6674    1.0913    0.2834 H   0  0  0  0  0  0  0  0  0  0  0  0
   -7.3106    3.0415   -1.3308 H   0  0  0  0  0  0  0  0  0  0  0  0
   -6.9474    2.4215    1.6541 H   0  0  0  0  0  0  0  0  0  0  0  0
   -8.3492    1.8937    0.7348 H   0  0  0  0  0  0  0  0  0  0  0  0
   -9.1766    4.1632    0.3407 H   0  0  0  0  0  0  0  0  0  0  0  0
   -7.8411    4.8831    1.2820 H   0  0  0  0  0  0  0  0  0  0  0  0
   -8.5730    3.3483    3.2061 H   0  0  0  0  0  0  0  0  0  0  0  0
   -9.9198    4.4543    2.6270 H   0  0  0  0  0  0  0  0  0  0  0  0
  -10.2788    2.5196    0.9198 H   0  0  0  0  0  0  0  0  0  0  0  0
  -11.0336    2.5975    2.5083 H   0  0  0  0  0  0  0  0  0  0  0  0
   -9.6518    1.5655    2.2482 H   0  0  0  0  0  0  0  0  0  0  0  0
   -4.9049    4.1899   -1.3202 N   0  0  0  0  0  0  0  0  0  0  0  0
   -4.1185    5.3666   -1.3645 C   0  0  2  0  0  0  0  0  0  0  0  0
   -2.7161    5.3241   -0.8909 C   0  0  0  0  0  0  0  0  0  0  0  0
   -2.0979    4.3747   -1.7489 O   0  0  0  0  0  0  0  0  0  0  0  0
   -4.8971    6.6022   -0.9307 C   0  0  2  0  0  0  0  0  0  0  0  0
   -3.9912    7.7973   -1.0218 C   0  0  1  0  0  0  0  0  0  0  0  0
   -4.7278    9.0769   -0.6402 C   0  0  1  0  0  0  0  0  0  0  0  0
   -3.7942   10.2898   -0.7277 C   0  0  2  0  0  0  0  0  0  0  0  0
   -5.1732    3.7600   -2.2161 H   0  0  0  0  0  0  0  0  0  0  0  0
   -4.0059    5.5658   -2.5075 H   0  0  0  0  0  0  0  0  0  0  0  0
   -5.2452    6.5479    0.1213 H   0  0  0  0  0  0  0  0  0  0  0  0
   -5.7263    6.7145   -1.6294 H   0  0  0  0  0  0  0  0  0  0  0  0
   -3.1613    7.7420   -0.2638 H   0  0  0  0  0  0  0  0  0  0  0  0
   -3.5217    7.9469   -2.0060 H   0  0  0  0  0  0  0  0  0  0  0  0
   -5.5344    9.3090   -1.3868 H   0  0  0  0  0  0  0  0  0  0  0  0
   -5.1938    8.9771    0.3382 H   0  0  0  0  0  0  0  0  0  0  0  0
   -4.3549   11.2296   -0.7453 H   0  0  0  0  0  0  0  0  0  0  0  0
   -3.2092   10.1988   -1.6906 H   0  0  0  0  0  0  0  0  0  0  0  0
   -3.0925   10.2895    0.1224 H   0  0  0  0  0  0  0  0  0  0  0  0
   -2.5385    4.9778    0.4743 N   0  0  0  0  0  0  0  0  0  0  0  0
   -1.1853    5.3368    0.9402 C   0  0  2  0  0  0  0  0  0  0  0  0
   -0.0787    4.7640    0.1900 C   0  0  0  0  0  0  0  0  0  0  0  0
    0.9769    5.4616    0.0729 O   0  0  0  0  0  0  0  0  0  0  0  0
   -1.2011    4.8216    2.3963 C   0  0  0  0  0  0  0  0  0  0  0  0
    0.0595    5.0237    3.1078 C   0  0  0  0  0  0  0  0  0  0  0  0
    0.9885    3.9670    3.0356 C   0  0  0  0  0  0  0  0  0  0  0  0
    0.4183    6.1249    3.8424 C   0  0  0  0  0  0  0  0  0  0  0  0
    2.1971    4.0745    3.6921 C   0  0  0  0  0  0  0  0  0  0  0  0
    1.6505    6.2130    4.5009 C   0  0  0  0  0  0  0  0  0  0  0  0
    2.5642    5.1565    4.4227 C   0  0  0  0  0  0  0  0  0  0  0  0
    3.8012    5.2278    5.0748 O   0  0  0  0  0  0  0  0  0  0  0  0
   -3.1944    5.5991    1.0284 H   0  0  0  0  0  0  0  0  0  0  0  0
   -1.1880    6.4295    1.0114 H   0  0  0  0  0  0  0  0  0  0  0  0
   -1.4914    3.7502    2.3137 H   0  0  0  0  0  0  0  0  0  0  0  0
   -2.0306    5.3347    2.9269 H   0  0  0  0  0  0  0  0  0  0  0  0
    0.7870    3.0769    2.4866 H   0  0  0  0  0  0  0  0  0  0  0  0
   -0.3106    6.9326    3.8886 H   0  0  0  0  0  0  0  0  0  0  0  0
    2.9272    3.2482    3.6412 H   0  0  0  0  0  0  0  0  0  0  0  0
    1.9125    7.0949    5.0759 H   0  0  0  0  0  0  0  0  0  0  0  0
    3.9261    4.6464    5.9206 H   0  0  0  0  0  0  0  0  0  0  0  0
    0.0163    3.5015   -0.4301 N   0  0  0  0  0  0  0  0  0  0  0  0
    1.1451    3.1775   -1.3613 C   0  0  2  0  0  0  0  0  0  0  0  0
    0.5141    2.4598   -2.5379 C   0  0  0  0  0  0  0  0  0  0  0  0
    1.4748    2.1110   -3.4338 O   0  0  0  0  0  0  0  0  0  0  0  0
    2.2932    2.5345   -0.6984 C   0  0  2  0  0  0  0  0  0  0  0  0
    3.4874    2.2069   -1.5933 C   0  0  1  0  0  0  0  0  0  0  0  0
    4.5369    1.5598   -0.7314 N   0  0  2  0  0  0  0  0  0  0  0  0
   -0.6956    2.8136   -0.1926 H   0  0  0  0  0  0  0  0  0  0  0  0
    1.5414    4.1603   -1.7590 H   0  0  0  0  0  0  0  0  0  0  0  0
    2.1141    1.6337   -0.1096 H   0  0  0  0  0  0  0  0  0  0  0  0
    2.6604    3.2921    0.0848 H   0  0  0  0  0  0  0  0  0  0  0  0
    3.2982    1.4842   -2.3658 H   0  0  0  0  0  0  0  0  0  0  0  0
    3.9485    3.1619   -1.9030 H   0  0  0  0  0  0  0  0  0  0  0  0
    5.4181    1.5016   -1.3064 H   0  0  0  0  0  0  0  0  0  0  0  0
    4.1557    0.5914   -0.4827 H   0  0  0  0  0  0  0  0  0  0  0  0
    4.6385    2.1509    0.1341 H   0  0  0  0  0  0  0  0  0  0  0  0
   -0.3299    1.3616   -2.0584 N   0  0  0  0  0  0  0  0  0  0  0  0
    0.3124    0.1345   -1.9991 C   0  0  2  0  0  0  0  0  0  0  0  0
    0.2063   -0.7223   -3.2611 C   0  0  0  0  0  0  0  0  0  0  0  0
   -0.5701   -0.5516   -4.1686 O   0  0  0  0  0  0  0  0  0  0  0  0
   -0.1815   -0.7417   -0.8582 C   0  0  0  0  0  0  0  0  0  0  0  0
    0.0654   -0.1711    0.7915 S   0  0  0  0  0  0  0  0  0  0  0  0
   -1.2256    1.3222   -2.5860 H   0  0  0  0  0  0  0  0  0  0  0  0
    1.4214    0.2012   -1.8280 H   0  0  0  0  0  0  0  0  0  0  0  0
   -1.3341   -0.8490   -0.9872 H   0  0  0  0  0  0  0  0  0  0  0  0
    0.1688   -1.7869   -1.0491 H   0  0  0  0  0  0  0  0  0  0  0  0
    1.1244   -1.7968   -3.3380 N   0  0  0  0  0  0  0  0  0  0  0  0
    0.9734   -2.9144   -4.3123 C   0  0  2  0  0  0  0  0  0  0  0  0
    1.5881   -3.9975   -3.5091 C   0  0  0  0  0  0  0  0  0  0  0  0
    2.4921   -3.5977   -2.7156 O   0  0  0  0  0  0  0  0  0  0  0  0
    1.8032   -2.5911   -5.5351 C   0  0  2  0  0  0  0  0  0  0  0  0
    1.6209   -3.7465   -6.5392 C   0  0  0  0  0  0  0  0  0  0  0  0
    3.2623   -2.4317   -5.2725 C   0  0  0  0  0  0  0  0  0  0  0  0
    2.4556   -3.4162   -7.7450 C   0  0  0  0  0  0  0  0  0  0  0  0
    1.9151   -1.7515   -2.6865 H   0  0  0  0  0  0  0  0  0  0  0  0
   -0.0347   -3.0752   -4.6335 H   0  0  0  0  0  0  0  0  0  0  0  0
    1.4219   -1.6864   -6.0363 H   0  0  0  0  0  0  0  0  0  0  0  0
    0.5590   -3.7853   -6.8488 H   0  0  0  0  0  0  0  0  0  0  0  0
    1.8699   -4.7012   -6.0783 H   0  0  0  0  0  0  0  0  0  0  0  0
    3.8253   -3.3902   -5.2842 H   0  0  0  0  0  0  0  0  0  0  0  0
    3.6917   -1.8642   -6.1482 H   0  0  0  0  0  0  0  0  0  0  0  0
    3.4331   -1.8302   -4.3872 H   0  0  0  0  0  0  0  0  0  0  0  0
    2.2089   -4.1036   -8.5870 H   0  0  0  0  0  0  0  0  0  0  0  0
    2.2741   -2.3844   -8.0998 H   0  0  0  0  0  0  0  0  0  0  0  0
    3.5431   -3.5189   -7.5317 H   0  0  0  0  0  0  0  0  0  0  0  0
    1.3294   -5.3749   -3.4869 N   0  0  0  0  0  0  0  0  0  0  0  0
    2.0415   -6.1271   -2.3726 C   0  0  2  0  0  0  0  0  0  0  0  0
    1.7544   -5.2654   -1.2265 C   0  0  0  0  0  0  0  0  0  0  0  0
    0.8286   -4.3805   -1.4627 O   0  0  0  0  0  0  0  0  0  0  0  0
    3.4060   -6.4233   -2.7573 C   0  0  0  0  0  0  0  0  0  0  0  0
    4.2564   -7.1502   -1.7907 C   0  0  0  0  0  0  0  0  0  0  0  0
    3.7740   -8.4892   -1.3670 C   0  0  0  0  0  0  0  0  0  0  0  0
    3.6311   -9.4354   -2.4418 N   0  0  0  0  0  0  0  0  0  0  0  0
    4.6780  -10.0093   -3.1846 C   0  0  0  0  0  0  0  0  0  0  0  0
    4.2816  -10.9347   -4.2257 N   0  0  0  0  0  0  0  0  0  0  0  0
    5.9290   -9.7841   -3.0177 N   0  0  0  0  0  0  0  0  0  0  0  0
    0.7373   -5.7981   -4.1508 H   0  0  0  0  0  0  0  0  0  0  0  0
    1.4153   -7.0233   -2.2556 H   0  0  0  0  0  0  0  0  0  0  0  0
    3.3603   -7.0768   -3.6856 H   0  0  0  0  0  0  0  0  0  0  0  0
    4.0161   -5.5547   -3.1047 H   0  0  0  0  0  0  0  0  0  0  0  0
    4.5672   -6.5392   -0.8910 H   0  0  0  0  0  0  0  0  0  0  0  0
    5.2468   -7.2801   -2.3140 H   0  0  0  0  0  0  0  0  0  0  0  0
    4.5800   -8.8745   -0.6533 H   0  0  0  0  0  0  0  0  0  0  0  0
    2.8765   -8.4772   -0.7397 H   0  0  0  0  0  0  0  0  0  0  0  0
    2.6272   -9.7117   -2.6781 H   0  0  0  0  0  0  0  0  0  0  0  0
    3.6071  -11.7038   -4.0284 H   0  0  0  0  0  0  0  0  0  0  0  0
    4.7053  -10.7818   -5.1716 H   0  0  0  0  0  0  0  0  0  0  0  0
    6.5846  -10.2849   -3.6491 H   0  0  0  0  0  0  0  0  0  0  0  0
    6.3673   -9.1767   -2.3097 H   0  0  0  0  0  0  0  0  0  0  0  0
    2.2421   -5.1795    0.0789 N   0  0  0  0  0  0  0  0  0  0  0  0
    1.8742   -3.9341    0.7947 C   0  0  2  0  0  0  0  0  0  0  0  0
    3.0081   -3.4026    1.5819 C   0  0  0  0  0  0  0  0  0  0  0  0
    4.1049   -4.0110    1.4840 O   0  0  0  0  0  0  0  0  0  0  0  0
    0.5434   -3.8074    1.3447 C   0  0  0  0  0  0  0  0  0  0  0  0
   -0.0312   -4.6076    2.8140 S   0  0  0  0  0  0  0  0  0  0  0  0
    2.7799   -5.9277    0.4661 H   0  0  0  0  0  0  0  0  0  0  0  0
    1.8390   -3.1188   -0.0700 H   0  0  0  0  0  0  0  0  0  0  0  0
   -0.2311   -3.8645    0.5023 H   0  0  0  0  0  0  0  0  0  0  0  0
    0.4482   -2.6883    1.5783 H   0  0  0  0  0  0  0  0  0  0  0  0
    2.9474   -2.2746    2.4228 N   0  0  0  0  0  0  0  0  0  0  0  0
    4.1223   -1.7798    3.1648 C   0  0  2  0  0  0  0  0  0  0  0  0
    4.1754   -2.3423    4.5127 C   0  0  0  0  0  0  0  0  0  0  0  0
    3.1938   -3.0405    4.9003 O   0  0  0  0  0  0  0  0  0  0  0  0
    4.0745   -0.3002    3.0353 C   0  0  0  0  0  0  0  0  0  0  0  0
    5.1196    0.4817    3.6796 C   0  0  0  0  0  0  0  0  0  0  0  0
    4.8789    0.9763    4.9631 C   0  0  0  0  0  0  0  0  0  0  0  0
    6.3432    0.7853    3.0903 C   0  0  0  0  0  0  0  0  0  0  0  0
    5.8504    1.7379    5.5895 C   0  0  0  0  0  0  0  0  0  0  0  0
    7.3038    1.5438    3.7208 C   0  0  0  0  0  0  0  0  0  0  0  0
    7.0576    2.0350    5.0008 C   0  0  0  0  0  0  0  0  0  0  0  0
    7.9811    2.8020    5.6869 O   0  0  0  0  0  0  0  0  0  0  0  0
    2.0297   -1.7867    2.5031 H   0  0  0  0  0  0  0  0  0  0  0  0
    5.0265   -2.2020    2.6353 H   0  0  0  0  0  0  0  0  0  0  0  0
    4.0544   -0.0594    1.9324 H   0  0  0  0  0  0  0  0  0  0  0  0
    3.0476    0.0689    3.3691 H   0  0  0  0  0  0  0  0  0  0  0  0
    3.9634    0.7984    5.4935 H   0  0  0  0  0  0  0  0  0  0  0  0
    6.5270    0.4036    2.0989 H   0  0  0  0  0  0  0  0  0  0  0  0
    5.6808    2.1342    6.5878 H   0  0  0  0  0  0  0  0  0  0  0  0
    8.2591    1.8016    3.3014 H   0  0  0  0  0  0  0  0  0  0  0  0
    7.8249    3.7395    5.9770 H   0  0  0  0  0  0  0  0  0  0  0  0
    5.2413   -2.1770    5.4271 N   0  0  0  0  0  0  0  0  0  0  0  0
    5.1410   -2.8146    6.7067 C   0  0  2  0  0  0  0  0  0  0  0  0
    5.3232   -1.8852    7.8490 C   0  0  0  0  0  0  0  0  0  0  0  0
    5.5555   -0.6576    7.7223 O   0  0  0  0  0  0  0  0  0  0  0  0
    6.2519   -3.8713    6.8305 C   0  0  0  0  0  0  0  0  0  0  0  0
    6.0738   -1.6129    5.1558 H   0  0  0  0  0  0  0  0  0  0  0  0
    4.1965   -3.3560    6.8236 H   0  0  0  0  0  0  0  0  0  0  0  0
    6.1305   -4.5170    7.7056 H   0  0  0  0  0  0  0  0  0  0  0  0
    6.3524   -4.4133    5.8581 H   0  0  0  0  0  0  0  0  0  0  0  0
    7.2285   -3.3209    6.9875 H   0  0  0  0  0  0  0  0  0  0  0  0
    5.2287   -2.4136    9.1680 N   0  0  0  0  0  0  0  0  0  0  0  0
    4.5473   -3.1492    9.4502 H   0  0  0  0  0  0  0  0  0  0  0  0
    5.8613   -2.0704    9.9293 H   0  0  0  0  0  0  0  0  0  0  0  0
   -2.9393   -1.5083    3.7408 H   0  0  0  0  0  0  0  0  0  0  0  0
   -1.9034   -1.8984    0.9041 H   0  0  0  0  0  0  0  0  0  0  0  0
   -4.0877   -0.7284    2.5539 H   0  0  0  0  0  0  0  0  0  0  0  0
   -5.2585   -2.5843    1.6802 H   0  0  0  0  0  0  0  0  0  0  0  0
   -2.6724   -3.7002    0.6936 H   0  0  0  0  0  0  0  0  0  0  0  0
   -3.4858   -3.4903    3.6449 H   0  0  0  0  0  0  0  0  0  0  0  0
   -3.5334   -2.4361   -0.8192 H   0  0  0  0  0  0  0  0  0  0  0  0
   -6.0672   -3.4191    0.0586 H   0  0  0  0  0  0  0  0  0  0  0  0
   -6.2795    4.8370    0.1454 H   0  0  0  0  0  0  0  0  0  0  0  0
   -4.3985    2.7492    0.7193 H   0  0  0  0  0  0  0  0  0  0  0  0
   -2.2067    6.2850   -1.1254 H   0  0  0  0  0  0  0  0  0  0  0  0
   -2.4245    4.4608   -2.6841 H   0  0  0  0  0  0  0  0  0  0  0  0
   -0.1871    3.1476   -3.0938 H   0  0  0  0  0  0  0  0  0  0  0  0
    1.3091    1.3808   -4.0421 H   0  0  0  0  0  0  0  0  0  0  0  0
  1  2  1  0
  1 11  1  1
  1 12  1  0
  1 13  1  0
  2  3  1  0
  2  7  1  0
  3  4  1  0
  3 10  1  0
  4  5  1  0
  4 14  1  0
  5  6  1  0
  5  9  1  0
  6  7  1  0
  6 15  1  0
  7  8  1  0
  8 16  1  6
  8 17  1  0
  8171  1  0
  9 19  1  0
  9 21  1  0
 10 18  1  6
 10 20  1  0
 10118  1  0
 23 38  1  0
 38 39  1  0
 38 46  1  0
 39 40  1  0
 39 44  1  0
 39 47  1  6
 40 41  1  0
 40 48  1  1
 40 49  1  0
 41 42  1  0
 41 50  1  6
 41 51  1  0
 42 43  1  0
 42 52  1  1
 42 53  1  0
 43 54  1  6
 43 55  1  0
 44 45  1  0
 44 57  1  0
 57 58  1  0
 57 65  1  0
 58 59  1  0
 58 61  1  0
 58 66  1  6
 59 60  1  0
 59 76  1  0
 61 62  1  0
 61 67  1  1
 61 68  1  0
 62 63  1  0
 62 69  1  1
 62 70  1  0
 63 64  1  0
 63 71  1  6
 63 72  1  0
 64 73  1  6
 64 74  1  0
 64 75  1  0
 78 97  1  0
 97 98  1  0
 97104  1  0
 98 99  1  0
 98101  1  0
 98105  1  6
 99100  1  0
 99113  1  0
101102  1  0
101106  1  1
101107  1  0
102103  1  0
102108  1  6
102109  1  0
103110  1  6
103111  1  0
199207  1  0
207208  1  0
207209  1  0
 22 21  1  0
 23 22  1  0
 24 23  2  0
 25 22  1  0
 26 25  1  0
 27 26  1  0
 28 26  2  0
 29 27  2  0
 30 28  1  0
 30 29  1  0
 31 21  1  0
 22 32  1  6
 33 25  1  0
 34 25  1  0
 35 28  1  0
 36 29  1  0
 37 30  1  0
 56 43  1  0
 77 76  1  0
 78 77  1  0
 79 78  2  0
 80 77  1  0
 81 80  1  0
 82 81  2  0
 83 81  1  0
 84 82  1  0
 85 83  2  0
 86 85  1  0
 86 84  2  0
 87 86  1  0
 88 76  1  0
 77 89  1  1
 90 80  1  0
 91 80  1  0
 92 82  1  0
 93 83  1  0
 94 84  1  0
 95 85  1  0
 96 87  1  0
112103  1  0
114113  1  0
115114  1  0
116115  2  0
117114  1  0
118117  1  0
119113  1  0
114120  1  1
121117  1  0
122117  1  0
123115  1  0
124123  1  0
125124  1  0
126125  2  0
127124  1  0
128127  1  0
129127  1  0
130128  1  0
131123  1  0
124132  1  6
127133  1  6
134128  1  0
135128  1  0
136129  1  0
137129  1  0
138129  1  0
139130  1  0
140130  1  0
141130  1  0
142125  1  0
143142  1  0
144143  1  0
145144  2  0
146143  1  0
147146  1  0
148147  1  0
149148  1  0
150149  1  0
151150  1  0
152150  2  0
153142  1  0
143154  1  1
155146  1  0
156146  1  0
157147  1  0
158147  1  0
159148  1  0
160148  1  0
161149  1  0
162151  1  0
163151  1  0
164152  1  0
165152  1  0
166144  1  0
167166  1  0
168167  1  0
169168  2  0
170167  1  0
171170  1  0
172166  1  0
167173  1  6
174170  1  0
175170  1  0
176168  1  0
177176  1  0
178177  1  0
179178  2  0
180177  1  0
181180  1  0
182181  2  0
183181  1  0
184182  1  0
185183  2  0
186185  1  0
186184  2  0
187186  1  0
188176  1  0
177189  1  6
190180  1  0
191180  1  0
192182  1  0
193183  1  0
194184  1  0
195185  1  0
196187  1  0
197178  1  0
198197  1  0
199198  1  0
200199  2  0
201198  1  0
202197  1  0
198203  1  1
204201  1  0
205201  1  0
206201  1  0
  2210  1  1
  3211  1  6
  4212  1  0
  5213  1  0
  6214  1  0
  7215  1  0
  9216  1  0
 19217  1  0
 44218  1  0
 45219  1  0
 59220  1  0
 60221  1  0
 99222  1  0
100223  1  0
M  CHG  3  43   1 103   1 152   1
M  END
$$$$
BP70
     RDKit          3D

223228  0  0  0  0  0  0  0  0999 V2000
    4.2279    1.5108    3.4359 C   0  0  2  0  0  0  0  0  0  0  0  0
    3.8307    2.9572    3.2454 C   0  0  1  0  0  0  0  0  0  0  0  0
    3.7295    3.2435    1.7512 C   0  0  1  0  0  0  0  0  0  0  0  0
    3.0638    4.5882    1.6146 C   0  0  0  0  0  0  0  0  0  0  0  0
    1.6005    4.4343    1.9150 C   0  0  0  0  0  0  0  0  0  0  0  0
    1.3764    3.5310    3.0635 C   0  0  0  0  0  0  0  0  0  0  0  0
    2.5889    3.3648    3.9490 C   0  0  0  0  0  0  0  0  0  0  0  0
    2.1535    2.4621    5.0864 C   0  0  2  0  0  0  0  0  0  0  0  0
    0.9164    3.8950    0.6474 C   0  0  0  0  0  0  0  0  0  0  0  0
    5.1244    3.2665    1.1398 C   0  0  1  0  0  0  0  0  0  0  0  0
    4.9816    1.2748    2.6757 H   0  0  0  0  0  0  0  0  0  0  0  0
    3.3622    0.8688    3.3042 H   0  0  0  0  0  0  0  0  0  0  0  0
    4.7390    1.3783    4.4140 H   0  0  0  0  0  0  0  0  0  0  0  0
    3.4843    5.2494    2.4364 H   0  0  0  0  0  0  0  0  0  0  0  0
    0.5781    3.9631    3.6959 H   0  0  0  0  0  0  0  0  0  0  0  0
    2.6095    2.8753    6.0394 H   0  0  0  0  0  0  0  0  0  0  0  0
    2.5119    1.4278    5.0106 H   0  0  0  0  0  0  0  0  0  0  0  0
    5.1189    4.1384    0.4162 H   0  0  0  0  0  0  0  0  0  0  0  0
    0.4132    2.6257    0.8567 O   0  0  0  0  0  0  0  0  0  0  0  0
    5.8889    3.5441    1.9116 H   0  0  0  0  0  0  0  0  0  0  0  0
   -0.1518    4.7582    0.2990 N   0  0  0  0  0  0  0  0  0  0  0  0
   -0.7964    4.5935   -0.9476 C   0  0  2  0  0  0  0  0  0  0  0  0
   -1.7013    3.4062   -1.0601 C   0  0  0  0  0  0  0  0  0  0  0  0
   -1.9946    2.6379   -0.1511 O   0  0  0  0  0  0  0  0  0  0  0  0
    0.2184    4.5619   -2.0963 C   0  0  0  0  0  0  0  0  0  0  0  0
    1.0097    5.8196   -2.1165 C   0  0  0  0  0  0  0  0  0  0  0  0
    1.9820    6.0992   -3.0088 N   0  0  0  0  0  0  0  0  0  0  0  0
    0.8810    6.8890   -1.2294 C   0  0  0  0  0  0  0  0  0  0  0  0
    2.4746    7.3160   -2.7140 C   0  0  0  0  0  0  0  0  0  0  0  0
    1.7997    7.7692   -1.6447 N   0  0  0  0  0  0  0  0  0  0  0  0
   -0.8297    4.9716    1.0474 H   0  0  0  0  0  0  0  0  0  0  0  0
   -1.4166    5.4989   -1.1202 H   0  0  0  0  0  0  0  0  0  0  0  0
   -0.2825    4.5092   -3.0755 H   0  0  0  0  0  0  0  0  0  0  0  0
    0.9238    3.7236   -2.0250 H   0  0  0  0  0  0  0  0  0  0  0  0
    0.1981    6.9909   -0.4032 H   0  0  0  0  0  0  0  0  0  0  0  0
    3.2538    7.8808   -3.1947 H   0  0  0  0  0  0  0  0  0  0  0  0
    1.9458    8.6902   -1.1638 H   0  0  0  0  0  0  0  0  0  0  0  0
   -2.2964    3.1056   -2.3303 N   0  0  0  0  0  0  0  0  0  0  0  0
   -3.1557    2.0032   -2.6051 C   0  0  1  0  0  0  0  0  0  0  0  0
   -4.0058    2.2127   -3.8107 C   0  0  2  0  0  0  0  0  0  0  0  0
   -4.8747    3.4245   -3.7416 C   0  0  2  0  0  0  0  0  0  0  0  0
   -5.8591    3.4631   -2.6328 C   0  0  1  0  0  0  0  0  0  0  0  0
   -6.5760    4.7676   -2.8003 N   0  0  2  0  0  0  0  0  0  0  0  0
   -2.3507    0.7282   -2.8845 C   0  0  0  0  0  0  0  0  0  0  0  0
   -1.5038    0.8888   -3.9395 O   0  0  0  0  0  0  0  0  0  0  0  0
   -2.0785    3.7616   -3.0822 H   0  0  0  0  0  0  0  0  0  0  0  0
   -3.7380    1.7565   -1.7466 H   0  0  0  0  0  0  0  0  0  0  0  0
   -4.7094    1.3392   -3.8993 H   0  0  0  0  0  0  0  0  0  0  0  0
   -3.3257    2.2651   -4.6932 H   0  0  0  0  0  0  0  0  0  0  0  0
   -5.4023    3.5025   -4.7271 H   0  0  0  0  0  0  0  0  0  0  0  0
   -4.2738    4.3690   -3.7033 H   0  0  0  0  0  0  0  0  0  0  0  0
   -6.6659    2.6977   -2.7019 H   0  0  0  0  0  0  0  0  0  0  0  0
   -5.4248    3.5104   -1.6203 H   0  0  0  0  0  0  0  0  0  0  0  0
   -7.2852    4.6826   -3.5784 H   0  0  0  0  0  0  0  0  0  0  0  0
   -5.8475    5.5127   -3.0693 H   0  0  0  0  0  0  0  0  0  0  0  0
   -7.0492    5.0239   -1.8832 H   0  0  0  0  0  0  0  0  0  0  0  0
   -3.2720   -0.3317   -3.1514 N   0  0  0  0  0  0  0  0  0  0  0  0
   -2.8005   -1.6383   -3.2964 C   0  0  2  0  0  0  0  0  0  0  0  0
   -2.0793   -2.0439   -4.5891 C   0  0  0  0  0  0  0  0  0  0  0  0
   -1.8249   -3.4408   -4.3577 O   0  0  0  0  0  0  0  0  0  0  0  0
   -3.7831   -2.7132   -2.9372 C   0  0  2  0  0  0  0  0  0  0  0  0
   -5.0513   -2.8120   -3.6637 C   0  0  1  0  0  0  0  0  0  0  0  0
   -6.0440   -1.6990   -3.5651 C   0  0  1  0  0  0  0  0  0  0  0  0
   -6.5482   -1.4561   -2.1493 C   0  0  2  0  0  0  0  0  0  0  0  0
   -4.1009   -0.2728   -2.5059 H   0  0  0  0  0  0  0  0  0  0  0  0
   -1.9578   -1.7235   -2.4836 H   0  0  0  0  0  0  0  0  0  0  0  0
   -4.0088   -2.6886   -1.8340 H   0  0  0  0  0  0  0  0  0  0  0  0
   -3.2243   -3.6832   -3.1183 H   0  0  0  0  0  0  0  0  0  0  0  0
   -4.9330   -2.9988   -4.7671 H   0  0  0  0  0  0  0  0  0  0  0  0
   -5.6402   -3.7446   -3.3472 H   0  0  0  0  0  0  0  0  0  0  0  0
   -5.7511   -0.8034   -4.1090 H   0  0  0  0  0  0  0  0  0  0  0  0
   -6.9684   -2.0668   -4.1344 H   0  0  0  0  0  0  0  0  0  0  0  0
   -7.0363   -0.4740   -2.1362 H   0  0  0  0  0  0  0  0  0  0  0  0
   -5.7488   -1.5621   -1.3944 H   0  0  0  0  0  0  0  0  0  0  0  0
   -7.3103   -2.2205   -1.8997 H   0  0  0  0  0  0  0  0  0  0  0  0
   -0.8212   -1.4649   -4.6582 N   0  0  0  0  0  0  0  0  0  0  0  0
    0.1829   -1.8832   -5.5863 C   0  0  2  0  0  0  0  0  0  0  0  0
    1.3265   -0.9644   -5.3694 C   0  0  0  0  0  0  0  0  0  0  0  0
    1.1320    0.1823   -5.0272 O   0  0  0  0  0  0  0  0  0  0  0  0
   -0.1028   -2.3452   -6.9244 C   0  0  0  0  0  0  0  0  0  0  0  0
   -0.7991   -1.5461   -7.9106 C   0  0  0  0  0  0  0  0  0  0  0  0
   -0.2401   -0.5634   -8.7060 C   0  0  0  0  0  0  0  0  0  0  0  0
   -2.1578   -1.7844   -8.1340 C   0  0  0  0  0  0  0  0  0  0  0  0
   -0.9621    0.1357   -9.6538 C   0  0  0  0  0  0  0  0  0  0  0  0
   -2.8842   -1.0951   -9.0725 C   0  0  0  0  0  0  0  0  0  0  0  0
   -2.3250   -0.1205   -9.8611 C   0  0  0  0  0  0  0  0  0  0  0  0
   -3.0165    0.6001  -10.8218 O   0  0  0  0  0  0  0  0  0  0  0  0
   -0.4189   -1.5051   -3.6583 H   0  0  0  0  0  0  0  0  0  0  0  0
    0.5499   -2.8396   -5.0486 H   0  0  0  0  0  0  0  0  0  0  0  0
    0.9016   -2.5921   -7.4017 H   0  0  0  0  0  0  0  0  0  0  0  0
   -0.5780   -3.3822   -6.8922 H   0  0  0  0  0  0  0  0  0  0  0  0
    0.7926   -0.3242   -8.5929 H   0  0  0  0  0  0  0  0  0  0  0  0
   -2.6911   -2.5633   -7.5667 H   0  0  0  0  0  0  0  0  0  0  0  0
   -0.5051    0.9066  -10.2822 H   0  0  0  0  0  0  0  0  0  0  0  0
   -3.9592   -1.3025   -9.2233 H   0  0  0  0  0  0  0  0  0  0  0  0
   -3.7691    0.1843  -11.3874 H   0  0  0  0  0  0  0  0  0  0  0  0
    2.7075   -1.3271   -5.5227 N   0  0  0  0  0  0  0  0  0  0  0  0
    3.7929   -0.3973   -5.2261 C   0  0  2  0  0  0  0  0  0  0  0  0
    4.0143   -0.5769   -3.7158 C   0  0  0  0  0  0  0  0  0  0  0  0
    2.8360   -0.2875   -3.0790 O   0  0  0  0  0  0  0  0  0  0  0  0
    3.5593    1.0294   -5.5150 C   0  0  2  0  0  0  0  0  0  0  0  0
    3.2451    1.4107   -6.9162 C   0  0  1  0  0  0  0  0  0  0  0  0
    4.3593    1.0132   -7.8181 N   0  0  2  0  0  0  0  0  0  0  0  0
    2.8367   -2.2910   -5.8521 H   0  0  0  0  0  0  0  0  0  0  0  0
    4.6926   -0.7230   -5.7434 H   0  0  0  0  0  0  0  0  0  0  0  0
    4.5808    1.5165   -5.2778 H   0  0  0  0  0  0  0  0  0  0  0  0
    2.9069    1.5179   -4.7679 H   0  0  0  0  0  0  0  0  0  0  0  0
    2.3495    0.9788   -7.3558 H   0  0  0  0  0  0  0  0  0  0  0  0
    3.2294    2.5394   -6.9936 H   0  0  0  0  0  0  0  0  0  0  0  0
    5.2273    1.5744   -7.6045 H   0  0  0  0  0  0  0  0  0  0  0  0
    4.0345    1.2321   -8.8186 H   0  0  0  0  0  0  0  0  0  0  0  0
    4.5007   -0.0346   -7.7220 H   0  0  0  0  0  0  0  0  0  0  0  0
    5.2000   -0.0552   -3.2028 N   0  0  0  0  0  0  0  0  0  0  0  0
    5.3440    0.0993   -1.7886 C   0  0  2  0  0  0  0  0  0  0  0  0
    4.7399   -1.0381   -1.0334 C   0  0  0  0  0  0  0  0  0  0  0  0
    4.2999   -2.0863   -1.5777 O   0  0  0  0  0  0  0  0  0  0  0  0
    4.9263    1.4500   -1.2949 C   0  0  0  0  0  0  0  0  0  0  0  0
    5.6469    1.8190    0.3024 S   0  0  0  0  0  0  0  0  0  0  0  0
    6.0245   -0.4191   -3.6842 H   0  0  0  0  0  0  0  0  0  0  0  0
    6.4814    0.0735   -1.6164 H   0  0  0  0  0  0  0  0  0  0  0  0
    3.8463    1.5383   -1.3234 H   0  0  0  0  0  0  0  0  0  0  0  0
    5.3157    2.1882   -2.0439 H   0  0  0  0  0  0  0  0  0  0  0  0
    4.5885   -1.0693    0.3774 N   0  0  0  0  0  0  0  0  0  0  0  0
    3.9505   -2.2011    1.0910 C   0  0  2  0  0  0  0  0  0  0  0  0
    2.6408   -1.5617    1.4544 C   0  0  0  0  0  0  0  0  0  0  0  0
    2.4235   -0.4257    1.1062 O   0  0  0  0  0  0  0  0  0  0  0  0
    4.7859   -2.5572    2.2978 C   0  0  2  0  0  0  0  0  0  0  0  0
    6.1947   -2.9368    1.8799 C   0  0  0  0  0  0  0  0  0  0  0  0
    4.2609   -3.6978    3.1095 C   0  0  0  0  0  0  0  0  0  0  0  0
    6.9890   -3.2612    3.1029 C   0  0  0  0  0  0  0  0  0  0  0  0
    4.9182   -0.3161    0.9202 H   0  0  0  0  0  0  0  0  0  0  0  0
    3.7199   -3.0517    0.4452 H   0  0  0  0  0  0  0  0  0  0  0  0
    4.8177   -1.6629    2.9386 H   0  0  0  0  0  0  0  0  0  0  0  0
    6.6603   -2.1572    1.2328 H   0  0  0  0  0  0  0  0  0  0  0  0
    6.1326   -3.8609    1.2534 H   0  0  0  0  0  0  0  0  0  0  0  0
    3.7737   -4.5049    2.5279 H   0  0  0  0  0  0  0  0  0  0  0  0
    3.6281   -3.3423    3.9744 H   0  0  0  0  0  0  0  0  0  0  0  0
    5.1115   -4.2060    3.6524 H   0  0  0  0  0  0  0  0  0  0  0  0
    6.5573   -2.8369    4.0383 H   0  0  0  0  0  0  0  0  0  0  0  0
    8.0181   -2.8096    3.0610 H   0  0  0  0  0  0  0  0  0  0  0  0
    7.0665   -4.3676    3.2796 H   0  0  0  0  0  0  0  0  0  0  0  0
    1.6237   -2.2210    2.1924 N   0  0  0  0  0  0  0  0  0  0  0  0
    0.3614   -1.4882    2.5631 C   0  0  2  0  0  0  0  0  0  0  0  0
    0.4518   -1.1388    3.9707 C   0  0  0  0  0  0  0  0  0  0  0  0
    1.5112   -1.5455    4.5799 O   0  0  0  0  0  0  0  0  0  0  0  0
   -0.8177   -2.1875    2.0157 C   0  0  0  0  0  0  0  0  0  0  0  0
   -2.1605   -1.5759    2.2981 C   0  0  0  0  0  0  0  0  0  0  0  0
   -3.2761   -2.3309    1.5942 C   0  0  0  0  0  0  0  0  0  0  0  0
   -4.5777   -1.7812    1.7979 N   0  0  0  0  0  0  0  0  0  0  0  0
   -5.0771   -0.5741    1.3240 C   0  0  0  0  0  0  0  0  0  0  0  0
   -6.4299   -0.2191    1.6450 N   0  0  0  0  0  0  0  0  0  0  0  0
   -4.3949    0.2678    0.5832 N   0  0  0  0  0  0  0  0  0  0  0  0
    1.7909   -3.1853    2.4375 H   0  0  0  0  0  0  0  0  0  0  0  0
    0.4020   -0.5010    2.0151 H   0  0  0  0  0  0  0  0  0  0  0  0
   -0.7178   -2.1283    0.8850 H   0  0  0  0  0  0  0  0  0  0  0  0
   -0.8181   -3.2873    2.1943 H   0  0  0  0  0  0  0  0  0  0  0  0
   -2.1856   -0.5414    2.0835 H   0  0  0  0  0  0  0  0  0  0  0  0
   -2.4448   -1.6782    3.3771 H   0  0  0  0  0  0  0  0  0  0  0  0
   -3.2854   -3.3773    1.8947 H   0  0  0  0  0  0  0  0  0  0  0  0
   -3.0577   -2.3624    0.4825 H   0  0  0  0  0  0  0  0  0  0  0  0
   -5.2519   -2.3670    2.3936 H   0  0  0  0  0  0  0  0  0  0  0  0
   -7.1877   -0.2800    0.9043 H   0  0  0  0  0  0  0  0  0  0  0  0
   -6.6031    0.0900    2.6224 H   0  0  0  0  0  0  0  0  0  0  0  0
   -3.4499    0.0149    0.3408 H   0  0  0  0  0  0  0  0  0  0  0  0
   -4.8298    1.1519    0.2676 H   0  0  0  0  0  0  0  0  0  0  0  0
   -0.4061   -0.4223    4.8294 N   0  0  0  0  0  0  0  0  0  0  0  0
    0.0329   -0.1470    6.2137 C   0  0  2  0  0  0  0  0  0  0  0  0
   -0.6875   -1.0503    7.1792 C   0  0  0  0  0  0  0  0  0  0  0  0
   -0.4332   -1.0625    8.3965 O   0  0  0  0  0  0  0  0  0  0  0  0
   -0.2691    1.3005    6.4982 C   0  0  0  0  0  0  0  0  0  0  0  0
    0.3544    2.4101    5.2223 S   0  0  0  0  0  0  0  0  0  0  0  0
   -1.2880   -0.1025    4.4944 H   0  0  0  0  0  0  0  0  0  0  0  0
    1.0918   -0.3509    6.3664 H   0  0  0  0  0  0  0  0  0  0  0  0
   -1.3237    1.5180    6.6645 H   0  0  0  0  0  0  0  0  0  0  0  0
    0.2559    1.5883    7.4603 H   0  0  0  0  0  0  0  0  0  0  0  0
   -1.6863   -1.8849    6.6208 N   0  0  0  0  0  0  0  0  0  0  0  0
   -2.4881   -2.8349    7.4186 C   0  0  2  0  0  0  0  0  0  0  0  0
   -2.2467   -4.1921    6.8529 C   0  0  0  0  0  0  0  0  0  0  0  0
   -2.7420   -5.2499    7.3387 O   0  0  0  0  0  0  0  0  0  0  0  0
   -3.9688   -2.5281    7.1966 C   0  0  0  0  0  0  0  0  0  0  0  0
   -4.9051   -3.4004    7.9145 C   0  0  0  0  0  0  0  0  0  0  0  0
   -5.3987   -4.5101    7.2407 C   0  0  0  0  0  0  0  0  0  0  0  0
   -5.3104   -3.1633    9.2342 C   0  0  0  0  0  0  0  0  0  0  0  0
   -6.2805   -5.3512    7.9056 C   0  0  0  0  0  0  0  0  0  0  0  0
   -6.1884   -4.0149    9.8729 C   0  0  0  0  0  0  0  0  0  0  0  0
   -6.6743   -5.1174    9.1962 C   0  0  0  0  0  0  0  0  0  0  0  0
   -7.5720   -6.0273    9.7962 O   0  0  0  0  0  0  0  0  0  0  0  0
   -1.9224   -1.8671    5.6149 H   0  0  0  0  0  0  0  0  0  0  0  0
   -2.1992   -2.7709    8.4639 H   0  0  0  0  0  0  0  0  0  0  0  0
   -4.1324   -1.4877    7.5710 H   0  0  0  0  0  0  0  0  0  0  0  0
   -4.2257   -2.5639    6.1173 H   0  0  0  0  0  0  0  0  0  0  0  0
   -5.1483   -4.7445    6.2372 H   0  0  0  0  0  0  0  0  0  0  0  0
   -4.9114   -2.2914    9.7522 H   0  0  0  0  0  0  0  0  0  0  0  0
   -6.6841   -6.2294    7.3974 H   0  0  0  0  0  0  0  0  0  0  0  0
   -6.5313   -3.8788   10.8810 H   0  0  0  0  0  0  0  0  0  0  0  0
   -8.5399   -6.0543    9.5161 H   0  0  0  0  0  0  0  0  0  0  0  0
   -1.4245   -4.3673    5.7020 N   0  0  0  0  0  0  0  0  0  0  0  0
   -1.1573   -5.6683    5.1148 C   0  0  2  0  0  0  0  0  0  0  0  0
    0.2916   -5.9228    4.9794 C   0  0  0  0  0  0  0  0  0  0  0  0
    1.0642   -5.0073    5.4313 O   0  0  0  0  0  0  0  0  0  0  0  0
   -1.7536   -5.7716    3.7275 C   0  0  0  0  0  0  0  0  0  0  0  0
   -0.9505   -3.5573    5.2093 H   0  0  0  0  0  0  0  0  0  0  0  0
   -1.6960   -6.3988    5.7462 H   0  0  0  0  0  0  0  0  0  0  0  0
   -2.6175   -5.1211    3.5751 H   0  0  0  0  0  0  0  0  0  0  0  0
   -0.9722   -5.5690    2.9308 H   0  0  0  0  0  0  0  0  0  0  0  0
   -2.0914   -6.8274    3.5069 H   0  0  0  0  0  0  0  0  0  0  0  0
    0.8517   -7.0891    4.3940 N   0  0  0  0  0  0  0  0  0  0  0  0
    1.7534   -7.0354    3.8908 H   0  0  0  0  0  0  0  0  0  0  0  0
    0.3930   -8.0290    4.4325 H   0  0  0  0  0  0  0  0  0  0  0  0
    4.7278    3.5488    3.6047 H   0  0  0  0  0  0  0  0  0  0  0  0
    3.2104    2.4068    1.2912 H   0  0  0  0  0  0  0  0  0  0  0  0
    3.2773    5.0944    0.6520 H   0  0  0  0  0  0  0  0  0  0  0  0
    1.2057    5.4676    2.1270 H   0  0  0  0  0  0  0  0  0  0  0  0
    1.1061    2.5466    2.6985 H   0  0  0  0  0  0  0  0  0  0  0  0
    2.7838    4.3858    4.3882 H   0  0  0  0  0  0  0  0  0  0  0  0
    1.6607    3.8253   -0.1814 H   0  0  0  0  0  0  0  0  0  0  0  0
    0.8253    1.9016    0.3348 H   0  0  0  0  0  0  0  0  0  0  0  0
   -1.8564    0.5045   -1.9043 H   0  0  0  0  0  0  0  0  0  0  0  0
   -0.6938    1.3660   -3.5283 H   0  0  0  0  0  0  0  0  0  0  0  0
   -2.8178   -1.8745   -5.3568 H   0  0  0  0  0  0  0  0  0  0  0  0
   -1.1247   -3.4495   -3.6483 H   0  0  0  0  0  0  0  0  0  0  0  0
    4.0928   -1.7288   -3.6618 H   0  0  0  0  0  0  0  0  0  0  0  0
    2.6435    0.6566   -2.9727 H   0  0  0  0  0  0  0  0  0  0  0  0
  1  2  1  0
  1 11  1  6
  1 12  1  0
  1 13  1  0
  2  3  1  0
  2  7  1  0
  3  4  1  0
  3 10  1  0
  4  5  1  0
  4 14  1  0
  5  6  1  0
  5  9  1  0
  6  7  1  0
  6 15  1  0
  7  8  1  0
  8 16  1  1
  8 17  1  0
  8171  1  0
  9 19  1  0
  9 21  1  0
 10 18  1  6
 10 20  1  0
 10118  1  0
 23 38  1  0
 38 39  1  0
 38 46  1  0
 39 40  1  0
 39 44  1  0
 39 47  1  1
 40 41  1  0
 40 48  1  6
 40 49  1  0
 41 42  1  0
 41 50  1  6
 41 51  1  0
 42 43  1  0
 42 52  1  1
 42 53  1  0
 43 54  1  6
 43 55  1  0
 44 45  1  0
 44 57  1  0
 57 58  1  0
 57 65  1  0
 58 59  1  0
 58 61  1  0
 58 66  1  1
 59 60  1  0
 59 76  1  0
 61 62  1  0
 61 67  1  1
 61 68  1  0
 62 63  1  0
 62 69  1  6
 62 70  1  0
 63 64  1  0
 63 71  1  6
 63 72  1  0
 64 73  1  6
 64 74  1  0
 64 75  1  0
 78 97  1  0
 97 98  1  0
 97104  1  0
 98 99  1  0
 98101  1  0
 98105  1  6
 99100  1  0
 99113  1  0
101102  1  0
101106  1  1
101107  1  0
102103  1  0
102108  1  6
102109  1  0
103110  1  1
103111  1  0
199207  1  0
207208  1  0
207209  1  0
 22 21  1  0
 23 22  1  0
 24 23  2  0
 25 22  1  0
 26 25  1  0
 27 26  1  0
 28 26  2  0
 29 27  2  0
 30 28  1  0
 30 29  1  0
 31 21  1  0
 22 32  1  6
 33 25  1  0
 34 25  1  0
 35 28  1  0
 36 29  1  0
 37 30  1  0
 56 43  1  0
 77 76  1  0
 78 77  1  0
 79 78  2  0
 80 77  1  0
 81 80  1  0
 82 81  2  0
 83 81  1  0
 84 82  1  0
 85 83  2  0
 86 85  1  0
 86 84  2  0
 87 86  1  0
 88 76  1  0
 77 89  1  1
 90 80  1  0
 91 80  1  0
 92 82  1  0
 93 83  1  0
 94 84  1  0
 95 85  1  0
 96 87  1  0
112103  1  0
114113  1  0
115114  1  0
116115  2  0
117114  1  0
118117  1  0
119113  1  0
114120  1  6
121117  1  0
122117  1  0
123115  1  0
124123  1  0
125124  1  0
126125  2  0
127124  1  0
128127  1  0
129127  1  0
130128  1  0
131123  1  0
124132  1  6
127133  1  1
134128  1  0
135128  1  0
136129  1  0
137129  1  0
138129  1  0
139130  1  0
140130  1  0
141130  1  0
142125  1  0
143142  1  0
144143  1  0
145144  2  0
146143  1  0
147146  1  0
148147  1  0
149148  1  0
150149  1  0
151150  1  0
152150  2  0
153142  1  0
143154  1  6
155146  1  0
156146  1  0
157147  1  0
158147  1  0
159148  1  0
160148  1  0
161149  1  0
162151  1  0
163151  1  0
164152  1  0
165152  1  0
166144  1  0
167166  1  0
168167  1  0
169168  2  0
170167  1  0
171170  1  0
172166  1  0
167173  1  6
174170  1  0
175170  1  0
176168  1  0
177176  1  0
178177  1  0
179178  2  0
180177  1  0
181180  1  0
182181  2  0
183181  1  0
184182  1  0
185183  2  0
186185  1  0
186184  2  0
187186  1  0
188176  1  0
177189  1  1
190180  1  0
191180  1  0
192182  1  0
193183  1  0
194184  1  0
195185  1  0
196187  1  0
197178  1  0
198197  1  0
199198  1  0
200199  2  0
201198  1  0
202197  1  0
198203  1  1
204201  1  0
205201  1  0
206201  1  0
  2210  1  1
  3211  1  6
  4212  1  0
  5213  1  0
  6214  1  0
  7215  1  0
  9216  1  0
 19217  1  0
 44218  1  0
 45219  1  0
 59220  1  0
 60221  1  0
 99222  1  0
100223  1  0
M  CHG  3  43   1 103   1 152   1
M  END
$$$$
BP70
     RDKit          3D

223228  0  0  0  0  0  0  0  0999 V2000
    0.8610    2.5954   -2.0254 C   0  0  2  0  0  0  0  0  0  0  0  0
    1.6632    1.3296   -1.8826 C   0  0  1  0  0  0  0  0  0  0  0  0
    0.8411    0.0908   -1.8207 C   0  0  1  0  0  0  0  0  0  0  0  0
    1.7951   -1.0960   -1.8582 C   0  0  0  0  0  0  0  0  0  0  0  0
    3.1575   -0.6904   -1.2854 C   0  0  0  0  0  0  0  0  0  0  0  0
    3.8126    0.3078   -2.2293 C   0  0  0  0  0  0  0  0  0  0  0  0
    2.6993    1.0963   -2.9335 C   0  0  0  0  0  0  0  0  0  0  0  0
    3.1432    2.2665   -3.7167 C   0  0  2  0  0  0  0  0  0  0  0  0
    3.9899   -1.9061   -1.1616 C   0  0  0  0  0  0  0  0  0  0  0  0
   -0.1083   -0.0257   -0.6578 C   0  0  1  0  0  0  0  0  0  0  0  0
    1.5421    3.4437   -2.1017 H   0  0  0  0  0  0  0  0  0  0  0  0
    0.3717    2.7316   -1.0049 H   0  0  0  0  0  0  0  0  0  0  0  0
    0.0239    2.5543   -2.7143 H   0  0  0  0  0  0  0  0  0  0  0  0
    1.9161   -1.5146   -2.8656 H   0  0  0  0  0  0  0  0  0  0  0  0
    4.4377    1.0207   -1.6708 H   0  0  0  0  0  0  0  0  0  0  0  0
    3.8605    1.9332   -4.4920 H   0  0  0  0  0  0  0  0  0  0  0  0
    3.6249    3.0577   -3.1228 H   0  0  0  0  0  0  0  0  0  0  0  0
    0.4160   -0.5562    0.1718 H   0  0  0  0  0  0  0  0  0  0  0  0
    3.4158   -2.8963   -0.3657 O   0  0  0  0  0  0  0  0  0  0  0  0
   -0.5486    0.9326   -0.3858 H   0  0  0  0  0  0  0  0  0  0  0  0
    5.3323   -1.5935   -0.7454 N   0  0  0  0  0  0  0  0  0  0  0  0
    5.7046   -2.3154    0.4712 C   0  0  2  0  0  0  0  0  0  0  0  0
    5.1281   -1.6819    1.6748 C   0  0  0  0  0  0  0  0  0  0  0  0
    4.6469   -0.5504    1.5731 O   0  0  0  0  0  0  0  0  0  0  0  0
    7.1997   -2.3979    0.5144 C   0  0  0  0  0  0  0  0  0  0  0  0
    7.7534   -3.1088   -0.6378 C   0  0  0  0  0  0  0  0  0  0  0  0
    8.1580   -2.7017   -1.8464 N   0  0  0  0  0  0  0  0  0  0  0  0
    7.9807   -4.4942   -0.6483 C   0  0  0  0  0  0  0  0  0  0  0  0
    8.6071   -3.7201   -2.5772 C   0  0  0  0  0  0  0  0  0  0  0  0
    8.5023   -4.8453   -1.8414 N   0  0  0  0  0  0  0  0  0  0  0  0
    6.0005   -1.7745   -1.5011 H   0  0  0  0  0  0  0  0  0  0  0  0
    5.2880   -3.3368    0.3576 H   0  0  0  0  0  0  0  0  0  0  0  0
    7.5261   -2.8542    1.4854 H   0  0  0  0  0  0  0  0  0  0  0  0
    7.5939   -1.3430    0.4879 H   0  0  0  0  0  0  0  0  0  0  0  0
    7.7769   -5.1904    0.1648 H   0  0  0  0  0  0  0  0  0  0  0  0
    8.9871   -3.6131   -3.6017 H   0  0  0  0  0  0  0  0  0  0  0  0
    8.7858   -5.8013   -2.1748 H   0  0  0  0  0  0  0  0  0  0  0  0
    5.0630   -2.2637    2.9709 N   0  0  0  0  0  0  0  0  0  0  0  0
    4.5427   -1.6410    4.1486 C   0  0  1  0  0  0  0  0  0  0  0  0
    4.5625   -0.1437    4.2139 C   0  0  2  0  0  0  0  0  0  0  0  0
    5.9645    0.4156    4.1431 C   0  0  2  0  0  0  0  0  0  0  0  0
    6.0088    1.9036    4.2102 C   0  0  1  0  0  0  0  0  0  0  0  0
    5.2854    2.5401    3.1030 N   0  0  2  0  0  0  0  0  0  0  0  0
    3.1914   -2.2570    4.4548 C   0  0  0  0  0  0  0  0  0  0  0  0
    3.2838   -3.5961    4.7523 O   0  0  0  0  0  0  0  0  0  0  0  0
    5.4288   -3.2203    3.0252 H   0  0  0  0  0  0  0  0  0  0  0  0
    5.2460   -1.9290    5.0179 H   0  0  0  0  0  0  0  0  0  0  0  0
    4.1907    0.1965    5.2408 H   0  0  0  0  0  0  0  0  0  0  0  0
    3.9230    0.3233    3.4596 H   0  0  0  0  0  0  0  0  0  0  0  0
    6.5580    0.0972    3.2859 H   0  0  0  0  0  0  0  0  0  0  0  0
    6.5626    0.0595    5.0381 H   0  0  0  0  0  0  0  0  0  0  0  0
    5.6030    2.2470    5.1861 H   0  0  0  0  0  0  0  0  0  0  0  0
    7.0794    2.2233    4.1003 H   0  0  0  0  0  0  0  0  0  0  0  0
    5.3725    1.9722    2.2149 H   0  0  0  0  0  0  0  0  0  0  0  0
    5.7291    3.5138    2.9344 H   0  0  0  0  0  0  0  0  0  0  0  0
    4.2721    2.6832    3.3908 H   0  0  0  0  0  0  0  0  0  0  0  0
    2.4058   -1.5219    5.3417 N   0  0  0  0  0  0  0  0  0  0  0  0
    1.1807   -2.1035    5.7489 C   0  0  2  0  0  0  0  0  0  0  0  0
    0.2327   -2.5030    4.6839 C   0  0  0  0  0  0  0  0  0  0  0  0
    0.8610   -3.4886    3.8808 O   0  0  0  0  0  0  0  0  0  0  0  0
    0.5137   -1.0659    6.6740 C   0  0  2  0  0  0  0  0  0  0  0  0
    0.2523    0.2445    6.0142 C   0  0  1  0  0  0  0  0  0  0  0  0
   -0.4541    1.1147    7.0630 C   0  0  1  0  0  0  0  0  0  0  0  0
   -0.7731    2.4760    6.4875 C   0  0  2  0  0  0  0  0  0  0  0  0
    2.2461   -0.5452    4.9942 H   0  0  0  0  0  0  0  0  0  0  0  0
    1.3263   -3.0071    6.4100 H   0  0  0  0  0  0  0  0  0  0  0  0
    1.1993   -0.9226    7.5207 H   0  0  0  0  0  0  0  0  0  0  0  0
   -0.4463   -1.4506    7.0666 H   0  0  0  0  0  0  0  0  0  0  0  0
    1.2139    0.8176    5.8386 H   0  0  0  0  0  0  0  0  0  0  0  0
   -0.2655    0.2174    5.0574 H   0  0  0  0  0  0  0  0  0  0  0  0
   -1.4119    0.6345    7.3461 H   0  0  0  0  0  0  0  0  0  0  0  0
    0.1780    1.1795    7.9475 H   0  0  0  0  0  0  0  0  0  0  0  0
   -1.3807    2.3468    5.5765 H   0  0  0  0  0  0  0  0  0  0  0  0
    0.1642    3.0180    6.3446 H   0  0  0  0  0  0  0  0  0  0  0  0
   -1.4077    3.0029    7.2106 H   0  0  0  0  0  0  0  0  0  0  0  0
   -1.0744   -2.8906    5.0363 N   0  0  0  0  0  0  0  0  0  0  0  0
   -1.4477   -4.2148    5.2471 C   0  0  2  0  0  0  0  0  0  0  0  0
   -2.8088   -4.4659    4.5459 C   0  0  0  0  0  0  0  0  0  0  0  0
   -3.3492   -5.5508    4.5167 O   0  0  0  0  0  0  0  0  0  0  0  0
   -1.6735   -4.7672    6.6023 C   0  0  0  0  0  0  0  0  0  0  0  0
   -0.6063   -4.7885    7.5797 C   0  0  0  0  0  0  0  0  0  0  0  0
   -0.3594   -3.8723    8.5673 C   0  0  0  0  0  0  0  0  0  0  0  0
    0.2903   -5.8723    7.5275 C   0  0  0  0  0  0  0  0  0  0  0  0
    0.6713   -3.9435    9.4726 C   0  0  0  0  0  0  0  0  0  0  0  0
    1.3370   -5.9637    8.4336 C   0  0  0  0  0  0  0  0  0  0  0  0
    1.5359   -5.0068    9.4071 C   0  0  0  0  0  0  0  0  0  0  0  0
    2.6023   -5.1280   10.3038 O   0  0  0  0  0  0  0  0  0  0  0  0
   -1.6021   -2.1979    5.5558 H   0  0  0  0  0  0  0  0  0  0  0  0
   -0.6980   -4.8914    4.7468 H   0  0  0  0  0  0  0  0  0  0  0  0
   -2.1172   -5.8209    6.5356 H   0  0  0  0  0  0  0  0  0  0  0  0
   -2.5425   -4.2264    7.1218 H   0  0  0  0  0  0  0  0  0  0  0  0
   -1.0328   -3.0323    8.6509 H   0  0  0  0  0  0  0  0  0  0  0  0
    0.1811   -6.6550    6.7831 H   0  0  0  0  0  0  0  0  0  0  0  0
    0.8447   -3.1957   10.2457 H   0  0  0  0  0  0  0  0  0  0  0  0
    2.0021   -6.8069    8.3631 H   0  0  0  0  0  0  0  0  0  0  0  0
    3.1573   -4.3061   10.4864 H   0  0  0  0  0  0  0  0  0  0  0  0
   -3.4464   -3.3769    3.9131 N   0  0  0  0  0  0  0  0  0  0  0  0
   -4.6883   -3.4074    3.1756 C   0  0  2  0  0  0  0  0  0  0  0  0
   -4.4597   -2.8428    1.7662 C   0  0  0  0  0  0  0  0  0  0  0  0
   -5.6830   -2.8547    1.1303 O   0  0  0  0  0  0  0  0  0  0  0  0
   -5.6872   -2.5327    3.8770 C   0  0  2  0  0  0  0  0  0  0  0  0
   -5.9483   -3.0336    5.2987 C   0  0  1  0  0  0  0  0  0  0  0  0
   -6.9418   -2.0675    5.8493 N   0  0  2  0  0  0  0  0  0  0  0  0
   -2.9676   -2.4702    3.9961 H   0  0  0  0  0  0  0  0  0  0  0  0
   -5.0896   -4.4316    3.0366 H   0  0  0  0  0  0  0  0  0  0  0  0
   -6.6296   -2.5863    3.3013 H   0  0  0  0  0  0  0  0  0  0  0  0
   -5.3027   -1.4992    3.9142 H   0  0  0  0  0  0  0  0  0  0  0  0
   -6.3487   -4.0421    5.3265 H   0  0  0  0  0  0  0  0  0  0  0  0
   -5.0281   -2.8689    5.8702 H   0  0  0  0  0  0  0  0  0  0  0  0
   -6.4305   -1.1224    5.9343 H   0  0  0  0  0  0  0  0  0  0  0  0
   -7.2498   -2.3890    6.8099 H   0  0  0  0  0  0  0  0  0  0  0  0
   -7.7601   -1.9882    5.1860 H   0  0  0  0  0  0  0  0  0  0  0  0
   -3.9117   -1.5695    1.8948 N   0  0  0  0  0  0  0  0  0  0  0  0
   -3.2862   -0.9006    0.7706 C   0  0  2  0  0  0  0  0  0  0  0  0
   -4.2684   -0.3752   -0.2188 C   0  0  0  0  0  0  0  0  0  0  0  0
   -5.3630   -0.8795   -0.4830 O   0  0  0  0  0  0  0  0  0  0  0  0
   -2.3511   -1.9007    0.0918 C   0  0  0  0  0  0  0  0  0  0  0  0
   -1.3779   -1.2261   -1.2339 S   0  0  0  0  0  0  0  0  0  0  0  0
   -4.6439   -0.8407    2.2095 H   0  0  0  0  0  0  0  0  0  0  0  0
   -2.6785   -0.0758    1.1446 H   0  0  0  0  0  0  0  0  0  0  0  0
   -3.0475   -2.6742   -0.3494 H   0  0  0  0  0  0  0  0  0  0  0  0
   -1.6683   -2.3624    0.8328 H   0  0  0  0  0  0  0  0  0  0  0  0
   -3.9856    0.8417   -0.9618 N   0  0  0  0  0  0  0  0  0  0  0  0
   -4.9633    1.3691   -1.9455 C   0  0  2  0  0  0  0  0  0  0  0  0
   -4.3884    2.3017   -2.8933 C   0  0  0  0  0  0  0  0  0  0  0  0
   -5.0000    2.7569   -3.8808 O   0  0  0  0  0  0  0  0  0  0  0  0
   -6.1390    1.8980   -1.1336 C   0  0  2  0  0  0  0  0  0  0  0  0
   -7.2995    2.5075   -1.7576 C   0  0  0  0  0  0  0  0  0  0  0  0
   -5.6292    2.8537   -0.0454 C   0  0  0  0  0  0  0  0  0  0  0  0
   -7.1868    3.7726   -2.5334 C   0  0  0  0  0  0  0  0  0  0  0  0
   -3.1017    1.2657   -0.7341 H   0  0  0  0  0  0  0  0  0  0  0  0
   -5.4257    0.4946   -2.4875 H   0  0  0  0  0  0  0  0  0  0  0  0
   -6.5220    1.0202   -0.5210 H   0  0  0  0  0  0  0  0  0  0  0  0
   -7.9355    1.7454   -2.3403 H   0  0  0  0  0  0  0  0  0  0  0  0
   -8.0277    2.7405   -0.9050 H   0  0  0  0  0  0  0  0  0  0  0  0
   -5.6087    3.8678   -0.4924 H   0  0  0  0  0  0  0  0  0  0  0  0
   -4.6354    2.6005    0.3185 H   0  0  0  0  0  0  0  0  0  0  0  0
   -6.4030    2.8917    0.7569 H   0  0  0  0  0  0  0  0  0  0  0  0
   -7.3864    3.7050   -3.6111 H   0  0  0  0  0  0  0  0  0  0  0  0
   -6.3028    4.3848   -2.3558 H   0  0  0  0  0  0  0  0  0  0  0  0
   -8.0349    4.5034   -2.2051 H   0  0  0  0  0  0  0  0  0  0  0  0
   -3.0290    2.8317   -2.8320 N   0  0  0  0  0  0  0  0  0  0  0  0
   -2.6094    3.9231   -3.6799 C   0  0  2  0  0  0  0  0  0  0  0  0
   -1.7047    3.6520   -4.7841 C   0  0  0  0  0  0  0  0  0  0  0  0
   -1.3135    4.6105   -5.4899 O   0  0  0  0  0  0  0  0  0  0  0  0
   -2.0231    5.0180   -2.7507 C   0  0  0  0  0  0  0  0  0  0  0  0
   -3.0997    5.4414   -1.7804 C   0  0  0  0  0  0  0  0  0  0  0  0
   -2.6228    6.4947   -0.8115 C   0  0  0  0  0  0  0  0  0  0  0  0
   -1.5002    5.9598   -0.0229 N   0  0  0  0  0  0  0  0  0  0  0  0
   -0.8632    6.7539    0.9670 C   0  0  0  0  0  0  0  0  0  0  0  0
    0.2189    6.1225    1.6759 N   0  0  0  0  0  0  0  0  0  0  0  0
   -1.2150    7.9695    1.2344 N   0  0  0  0  0  0  0  0  0  0  0  0
   -2.4320    2.3666   -2.1679 H   0  0  0  0  0  0  0  0  0  0  0  0
   -3.5247    4.4227   -4.1395 H   0  0  0  0  0  0  0  0  0  0  0  0
   -1.7267    5.9093   -3.3257 H   0  0  0  0  0  0  0  0  0  0  0  0
   -1.1553    4.6535   -2.2056 H   0  0  0  0  0  0  0  0  0  0  0  0
   -3.9445    5.8214   -2.3722 H   0  0  0  0  0  0  0  0  0  0  0  0
   -3.4482    4.5391   -1.2244 H   0  0  0  0  0  0  0  0  0  0  0  0
   -2.3279    7.3991   -1.3764 H   0  0  0  0  0  0  0  0  0  0  0  0
   -3.4626    6.7273   -0.1185 H   0  0  0  0  0  0  0  0  0  0  0  0
   -1.1827    4.9877   -0.2067 H   0  0  0  0  0  0  0  0  0  0  0  0
    0.9887    5.7547    1.0651 H   0  0  0  0  0  0  0  0  0  0  0  0
    0.2435    6.0359    2.7044 H   0  0  0  0  0  0  0  0  0  0  0  0
   -0.6810    8.4625    1.9768 H   0  0  0  0  0  0  0  0  0  0  0  0
   -2.0062    8.3818    0.6967 H   0  0  0  0  0  0  0  0  0  0  0  0
   -1.1809    2.3912   -5.1905 N   0  0  0  0  0  0  0  0  0  0  0  0
   -0.2509    2.2799   -6.3319 C   0  0  2  0  0  0  0  0  0  0  0  0
   -0.8022    1.4703   -7.4143 C   0  0  0  0  0  0  0  0  0  0  0  0
   -2.0119    1.0820   -7.3040 O   0  0  0  0  0  0  0  0  0  0  0  0
    1.0437    1.7545   -5.7600 C   0  0  0  0  0  0  0  0  0  0  0  0
    1.6825    2.9561   -4.5580 S   0  0  0  0  0  0  0  0  0  0  0  0
   -1.4976    1.5920   -4.6402 H   0  0  0  0  0  0  0  0  0  0  0  0
   -0.0616    3.2951   -6.7564 H   0  0  0  0  0  0  0  0  0  0  0  0
    0.8037    0.7800   -5.3106 H   0  0  0  0  0  0  0  0  0  0  0  0
    1.8006    1.6815   -6.5638 H   0  0  0  0  0  0  0  0  0  0  0  0
   -0.0739    1.0944   -8.5672 N   0  0  0  0  0  0  0  0  0  0  0  0
   -0.7584    0.2914   -9.5604 C   0  0  2  0  0  0  0  0  0  0  0  0
   -0.4066   -1.1626   -9.3640 C   0  0  0  0  0  0  0  0  0  0  0  0
   -0.9076   -1.9683  -10.1878 O   0  0  0  0  0  0  0  0  0  0  0  0
   -0.2732    0.6743  -10.9230 C   0  0  0  0  0  0  0  0  0  0  0  0
   -0.5044    2.0968  -11.2714 C   0  0  0  0  0  0  0  0  0  0  0  0
    0.4915    3.0167  -10.9945 C   0  0  0  0  0  0  0  0  0  0  0  0
   -1.6977    2.5173  -11.8717 C   0  0  0  0  0  0  0  0  0  0  0  0
    0.3072    4.3330  -11.3066 C   0  0  0  0  0  0  0  0  0  0  0  0
   -1.8286    3.8486  -12.1633 C   0  0  0  0  0  0  0  0  0  0  0  0
   -0.8402    4.7923  -11.8925 C   0  0  0  0  0  0  0  0  0  0  0  0
   -1.0562    6.1270  -12.2217 O   0  0  0  0  0  0  0  0  0  0  0  0
    0.9162    1.4072   -8.6438 H   0  0  0  0  0  0  0  0  0  0  0  0
   -1.8469    0.3957   -9.4027 H   0  0  0  0  0  0  0  0  0  0  0  0
    0.8224    0.4556  -11.0076 H   0  0  0  0  0  0  0  0  0  0  0  0
   -0.7573   -0.0046  -11.6813 H   0  0  0  0  0  0  0  0  0  0  0  0
    1.4359    2.7473  -10.5338 H   0  0  0  0  0  0  0  0  0  0  0  0
   -2.4635    1.7775  -12.0813 H   0  0  0  0  0  0  0  0  0  0  0  0
    1.0944    5.0501  -11.0879 H   0  0  0  0  0  0  0  0  0  0  0  0
   -2.7388    4.2092  -12.6292 H   0  0  0  0  0  0  0  0  0  0  0  0
   -0.5859    6.5008  -13.0444 H   0  0  0  0  0  0  0  0  0  0  0  0
    0.4353   -1.5018   -8.2964 N   0  0  0  0  0  0  0  0  0  0  0  0
    0.8803   -2.8256   -7.9476 C   0  0  2  0  0  0  0  0  0  0  0  0
    0.3369   -3.1874   -6.5818 C   0  0  0  0  0  0  0  0  0  0  0  0
   -0.3900   -2.3699   -5.9612 O   0  0  0  0  0  0  0  0  0  0  0  0
    2.3615   -2.9935   -7.8948 C   0  0  0  0  0  0  0  0  0  0  0  0
    0.7940   -0.7193   -7.6674 H   0  0  0  0  0  0  0  0  0  0  0  0
    0.4659   -3.5394   -8.6840 H   0  0  0  0  0  0  0  0  0  0  0  0
    2.8839   -2.0759   -7.5434 H   0  0  0  0  0  0  0  0  0  0  0  0
    2.5898   -3.7642   -7.1007 H   0  0  0  0  0  0  0  0  0  0  0  0
    2.8092   -3.4268   -8.8182 H   0  0  0  0  0  0  0  0  0  0  0  0
    0.6596   -4.4683   -6.0051 N   0  0  0  0  0  0  0  0  0  0  0  0
    1.3873   -4.4284   -5.2461 H   0  0  0  0  0  0  0  0  0  0  0  0
    0.2032   -5.3469   -6.3278 H   0  0  0  0  0  0  0  0  0  0  0  0
    2.2039    1.4618   -0.9002 H   0  0  0  0  0  0  0  0  0  0  0  0
    0.2360    0.0323   -2.7524 H   0  0  0  0  0  0  0  0  0  0  0  0
    1.3915   -1.8717   -1.1917 H   0  0  0  0  0  0  0  0  0  0  0  0
    2.9933   -0.1956   -0.3112 H   0  0  0  0  0  0  0  0  0  0  0  0
    4.4417   -0.2015   -2.9801 H   0  0  0  0  0  0  0  0  0  0  0  0
    2.2971    0.3242   -3.6729 H   0  0  0  0  0  0  0  0  0  0  0  0
    4.0216   -2.3760   -2.1958 H   0  0  0  0  0  0  0  0  0  0  0  0
    3.2408   -3.7365   -0.8109 H   0  0  0  0  0  0  0  0  0  0  0  0
    2.6007   -2.2527    3.4512 H   0  0  0  0  0  0  0  0  0  0  0  0
    3.9750   -3.7731    5.4451 H   0  0  0  0  0  0  0  0  0  0  0  0
    0.1664   -1.6211    3.9643 H   0  0  0  0  0  0  0  0  0  0  0  0
    0.3866   -3.6407    3.0411 H   0  0  0  0  0  0  0  0  0  0  0  0
   -3.8320   -3.5761    1.1897 H   0  0  0  0  0  0  0  0  0  0  0  0
   -5.9861   -3.7448    0.8586 H   0  0  0  0  0  0  0  0  0  0  0  0
  1  2  1  0
  1 11  1  6
  1 12  1  0
  1 13  1  0
  2  3  1  0
  2  7  1  0
  3  4  1  0
  3 10  1  0
  4  5  1  0
  4 14  1  0
  5  6  1  0
  5  9  1  0
  6  7  1  0
  6 15  1  0
  7  8  1  0
  8 16  1  6
  8 17  1  0
  8171  1  0
  9 19  1  0
  9 21  1  0
 10 18  1  1
 10 20  1  0
 10118  1  0
 23 38  1  0
 38 39  1  0
 38 46  1  0
 39 40  1  0
 39 44  1  0
 39 47  1  1
 40 41  1  0
 40 48  1  1
 40 49  1  0
 41 42  1  0
 41 50  1  6
 41 51  1  0
 42 43  1  0
 42 52  1  1
 42 53  1  0
 43 54  1  6
 43 55  1  0
 44 45  1  0
 44 57  1  0
 57 58  1  0
 57 65  1  0
 58 59  1  0
 58 61  1  0
 58 66  1  1
 59 60  1  0
 59 76  1  0
 61 62  1  0
 61 67  1  1
 61 68  1  0
 62 63  1  0
 62 69  1  6
 62 70  1  0
 63 64  1  0
 63 71  1  1
 63 72  1  0
 64 73  1  6
 64 74  1  0
 64 75  1  0
 78 97  1  0
 97 98  1  0
 97104  1  0
 98 99  1  0
 98101  1  0
 98105  1  6
 99100  1  0
 99113  1  0
101102  1  0
101106  1  6
101107  1  0
102103  1  0
102108  1  6
102109  1  0
103110  1  1
103111  1  0
199207  1  0
207208  1  0
207209  1  0
 22 21  1  0
 23 22  1  0
 24 23  2  0
 25 22  1  0
 26 25  1  0
 27 26  1  0
 28 26  2  0
 29 27  2  0
 30 28  1  0
 30 29  1  0
 31 21  1  0
 22 32  1  6
 33 25  1  0
 34 25  1  0
 35 28  1  0
 36 29  1  0
 37 30  1  0
 56 43  1  0
 77 76  1  0
 78 77  1  0
 79 78  2  0
 80 77  1  0
 81 80  1  0
 82 81  2  0
 83 81  1  0
 84 82  1  0
 85 83  2  0
 86 85  1  0
 86 84  2  0
 87 86  1  0
 88 76  1  0
 77 89  1  6
 90 80  1  0
 91 80  1  0
 92 82  1  0
 93 83  1  0
 94 84  1  0
 95 85  1  0
 96 87  1  0
112103  1  0
114113  1  0
115114  1  0
116115  2  0
117114  1  0
118117  1  0
119113  1  0
114120  1  1
121117  1  0
122117  1  0
123115  1  0
124123  1  0
125124  1  0
126125  2  0
127124  1  0
128127  1  0
129127  1  0
130128  1  0
131123  1  0
124132  1  6
127133  1  1
134128  1  0
135128  1  0
136129  1  0
137129  1  0
138129  1  0
139130  1  0
140130  1  0
141130  1  0
142125  1  0
143142  1  0
144143  1  0
145144  2  0
146143  1  0
147146  1  0
148147  1  0
149148  1  0
150149  1  0
151150  1  0
152150  2  0
153142  1  0
143154  1  6
155146  1  0
156146  1  0
157147  1  0
158147  1  0
159148  1  0
160148  1  0
161149  1  0
162151  1  0
163151  1  0
164152  1  0
165152  1  0
166144  1  0
167166  1  0
168167  1  0
169168  2  0
170167  1  0
171170  1  0
172166  1  0
167173  1  6
174170  1  0
175170  1  0
176168  1  0
177176  1  0
178177  1  0
179178  2  0
180177  1  0
181180  1  0
182181  2  0
183181  1  0
184182  1  0
185183  2  0
186185  1  0
186184  2  0
187186  1  0
188176  1  0
177189  1  6
190180  1  0
191180  1  0
192182  1  0
193183  1  0
194184  1  0
195185  1  0
196187  1  0
197178  1  0
198197  1  0
199198  1  0
200199  2  0
201198  1  0
202197  1  0
198203  1  6
204201  1  0
205201  1  0
206201  1  0
  2210  1  1
  3211  1  6
  4212  1  0
  5213  1  0
  6214  1  0
  7215  1  0
  9216  1  0
 19217  1  0
 44218  1  0
 45219  1  0
 59220  1  0
 60221  1  0
 99222  1  0
100223  1  0
M  CHG  3  43   1 103   1 152   1
M  END
$$$$
BP70
     RDKit          3D

223228  0  0  0  0  0  0  0  0999 V2000
    5.5164   -0.6056    0.3122 C   0  0  2  0  0  0  0  0  0  0  0  0
    5.5519    0.7878    0.7473 C   0  0  1  0  0  0  0  0  0  0  0  0
    5.3919    1.7745   -0.3795 C   0  0  1  0  0  0  0  0  0  0  0  0
    5.8198    3.1802    0.1943 C   0  0  0  0  0  0  0  0  0  0  0  0
    4.8091    3.5409    1.2400 C   0  0  0  0  0  0  0  0  0  0  0  0
    5.0143    2.5735    2.3796 C   0  0  0  0  0  0  0  0  0  0  0  0
    4.5742    1.1859    1.8615 C   0  0  0  0  0  0  0  0  0  0  0  0
    3.9499    0.2978    2.8259 C   0  0  2  0  0  0  0  0  0  0  0  0
    3.4364    3.7803    0.7338 C   0  0  0  0  0  0  0  0  0  0  0  0
    5.5940    1.7056   -1.7943 C   0  0  1  0  0  0  0  0  0  0  0  0
    4.6062   -1.1078    0.7090 H   0  0  0  0  0  0  0  0  0  0  0  0
    6.4535   -1.1847    0.5578 H   0  0  0  0  0  0  0  0  0  0  0  0
    5.4393   -0.6936   -0.8106 H   0  0  0  0  0  0  0  0  0  0  0  0
    5.9034    3.8180   -0.6697 H   0  0  0  0  0  0  0  0  0  0  0  0
    4.4154    2.8305    3.2788 H   0  0  0  0  0  0  0  0  0  0  0  0
    4.4757    0.5454    3.8309 H   0  0  0  0  0  0  0  0  0  0  0  0
    4.3998   -0.7352    2.6514 H   0  0  0  0  0  0  0  0  0  0  0  0
    6.3161    2.6154   -2.0303 H   0  0  0  0  0  0  0  0  0  0  0  0
    3.6863    5.0515    0.0428 O   0  0  0  0  0  0  0  0  0  0  0  0
    6.4482    0.8848   -1.9260 H   0  0  0  0  0  0  0  0  0  0  0  0
    2.6511    3.0379   -0.1086 N   0  0  0  0  0  0  0  0  0  0  0  0
    1.5441    2.1547    0.2149 C   0  0  2  0  0  0  0  0  0  0  0  0
    1.6457    0.7695   -0.0312 C   0  0  0  0  0  0  0  0  0  0  0  0
    2.6770    0.2803   -0.6441 O   0  0  0  0  0  0  0  0  0  0  0  0
    0.4192    3.0989    0.1359 C   0  0  0  0  0  0  0  0  0  0  0  0
    0.4346    4.2773    1.0712 C   0  0  0  0  0  0  0  0  0  0  0  0
   -0.0194    4.2835    2.3763 N   0  0  0  0  0  0  0  0  0  0  0  0
    0.7950    5.6106    0.8282 C   0  0  0  0  0  0  0  0  0  0  0  0
    0.0653    5.4983    2.8696 C   0  0  0  0  0  0  0  0  0  0  0  0
    0.5472    6.3273    1.9751 N   0  0  0  0  0  0  0  0  0  0  0  0
    2.6202    3.4225   -1.0704 H   0  0  0  0  0  0  0  0  0  0  0  0
    1.6275    2.2249    1.3749 H   0  0  0  0  0  0  0  0  0  0  0  0
   -0.5728    2.7888    0.3029 H   0  0  0  0  0  0  0  0  0  0  0  0
    0.5509    3.6735   -0.8250 H   0  0  0  0  0  0  0  0  0  0  0  0
    1.1761    5.9863   -0.1068 H   0  0  0  0  0  0  0  0  0  0  0  0
   -0.2157    5.8071    3.8881 H   0  0  0  0  0  0  0  0  0  0  0  0
    0.7472    7.3343    2.0139 H   0  0  0  0  0  0  0  0  0  0  0  0
    0.7994   -0.3729    0.2595 N   0  0  0  0  0  0  0  0  0  0  0  0
    1.3015   -1.7625    0.0353 C   0  0  1  0  0  0  0  0  0  0  0  0
    0.7017   -2.7873    0.9389 C   0  0  2  0  0  0  0  0  0  0  0  0
    0.8160   -2.7734    2.3857 C   0  0  2  0  0  0  0  0  0  0  0  0
    0.0986   -4.0447    2.9310 C   0  0  1  0  0  0  0  0  0  0  0  0
    0.2053   -4.0142    4.3929 N   0  0  2  0  0  0  0  0  0  0  0  0
    0.9925   -2.3789   -1.2959 C   0  0  0  0  0  0  0  0  0  0  0  0
   -0.4267   -2.3316   -1.3636 O   0  0  0  0  0  0  0  0  0  0  0  0
   -0.0903   -0.2814    0.5922 H   0  0  0  0  0  0  0  0  0  0  0  0
    2.3753   -1.6882    0.1012 H   0  0  0  0  0  0  0  0  0  0  0  0
    0.9529   -3.8400    0.5967 H   0  0  0  0  0  0  0  0  0  0  0  0
   -0.4192   -2.7836    0.6119 H   0  0  0  0  0  0  0  0  0  0  0  0
    0.1986   -1.9758    2.8736 H   0  0  0  0  0  0  0  0  0  0  0  0
    1.8211   -2.8552    2.7743 H   0  0  0  0  0  0  0  0  0  0  0  0
   -0.9494   -4.0388    2.6038 H   0  0  0  0  0  0  0  0  0  0  0  0
    0.5541   -4.9603    2.5329 H   0  0  0  0  0  0  0  0  0  0  0  0
    1.1068   -3.5487    4.6867 H   0  0  0  0  0  0  0  0  0  0  0  0
    0.1806   -5.0314    4.7333 H   0  0  0  0  0  0  0  0  0  0  0  0
   -0.6523   -3.4830    4.7789 H   0  0  0  0  0  0  0  0  0  0  0  0
    1.3268   -3.7471   -1.3155 N   0  0  0  0  0  0  0  0  0  0  0  0
    2.4808   -4.4439   -1.5080 C   0  0  2  0  0  0  0  0  0  0  0  0
    2.2340   -5.7983   -2.2298 C   0  0  0  0  0  0  0  0  0  0  0  0
    3.5120   -6.4025   -2.3096 O   0  0  0  0  0  0  0  0  0  0  0  0
    3.3943   -4.8755   -0.3913 C   0  0  2  0  0  0  0  0  0  0  0  0
    4.0785   -3.9303    0.4806 C   0  0  1  0  0  0  0  0  0  0  0  0
    4.9272   -4.7643    1.4785 C   0  0  1  0  0  0  0  0  0  0  0  0
    5.9478   -5.5957    0.7667 C   0  0  2  0  0  0  0  0  0  0  0  0
    0.4756   -4.3830   -1.3150 H   0  0  0  0  0  0  0  0  0  0  0  0
    3.1585   -3.8328   -2.1816 H   0  0  0  0  0  0  0  0  0  0  0  0
    4.2102   -5.5635   -0.8107 H   0  0  0  0  0  0  0  0  0  0  0  0
    2.8504   -5.6103    0.2847 H   0  0  0  0  0  0  0  0  0  0  0  0
    4.8701   -3.3103   -0.0481 H   0  0  0  0  0  0  0  0  0  0  0  0
    3.5287   -3.2549    1.1152 H   0  0  0  0  0  0  0  0  0  0  0  0
    5.4605   -4.0613    2.1515 H   0  0  0  0  0  0  0  0  0  0  0  0
    4.2362   -5.3528    2.1106 H   0  0  0  0  0  0  0  0  0  0  0  0
    6.7732   -5.9150    1.4575 H   0  0  0  0  0  0  0  0  0  0  0  0
    6.4625   -4.9764   -0.0093 H   0  0  0  0  0  0  0  0  0  0  0  0
    5.5093   -6.5169    0.3849 H   0  0  0  0  0  0  0  0  0  0  0  0
    1.6535   -5.8558   -3.4658 N   0  0  0  0  0  0  0  0  0  0  0  0
    2.2034   -5.1774   -4.6069 C   0  0  2  0  0  0  0  0  0  0  0  0
    1.5041   -3.8830   -4.6404 C   0  0  0  0  0  0  0  0  0  0  0  0
    0.4542   -3.7720   -4.0545 O   0  0  0  0  0  0  0  0  0  0  0  0
    2.1875   -5.9596   -5.8722 C   0  0  0  0  0  0  0  0  0  0  0  0
    0.9071   -6.4403   -6.3662 C   0  0  0  0  0  0  0  0  0  0  0  0
    0.1070   -5.7302   -7.2355 C   0  0  0  0  0  0  0  0  0  0  0  0
    0.4337   -7.6902   -5.9946 C   0  0  0  0  0  0  0  0  0  0  0  0
   -1.0764   -6.1861   -7.7229 C   0  0  0  0  0  0  0  0  0  0  0  0
   -0.7595   -8.1499   -6.4878 C   0  0  0  0  0  0  0  0  0  0  0  0
   -1.5822   -7.4700   -7.3571 C   0  0  0  0  0  0  0  0  0  0  0  0
   -2.7758   -7.9323   -7.8464 O   0  0  0  0  0  0  0  0  0  0  0  0
    0.6230   -6.0101   -3.5367 H   0  0  0  0  0  0  0  0  0  0  0  0
    3.3058   -4.9999   -4.3730 H   0  0  0  0  0  0  0  0  0  0  0  0
    2.6014   -5.2622   -6.6658 H   0  0  0  0  0  0  0  0  0  0  0  0
    2.9456   -6.7949   -5.8667 H   0  0  0  0  0  0  0  0  0  0  0  0
    0.4173   -4.7309   -7.5812 H   0  0  0  0  0  0  0  0  0  0  0  0
    0.9965   -8.3280   -5.3096 H   0  0  0  0  0  0  0  0  0  0  0  0
   -1.7304   -5.6560   -8.4051 H   0  0  0  0  0  0  0  0  0  0  0  0
   -1.0863   -9.1322   -6.1629 H   0  0  0  0  0  0  0  0  0  0  0  0
   -3.5592   -7.2885   -8.0622 H   0  0  0  0  0  0  0  0  0  0  0  0
    1.9969   -2.7145   -5.3298 N   0  0  0  0  0  0  0  0  0  0  0  0
    1.4207   -1.4361   -5.2597 C   0  0  2  0  0  0  0  0  0  0  0  0
    2.2490   -0.3083   -4.7481 C   0  0  0  0  0  0  0  0  0  0  0  0
    2.9206   -0.5344   -3.5561 O   0  0  0  0  0  0  0  0  0  0  0  0
   -0.0436   -1.4359   -4.9741 C   0  0  2  0  0  0  0  0  0  0  0  0
   -0.9163   -2.1048   -6.0007 C   0  0  1  0  0  0  0  0  0  0  0  0
   -2.3149   -2.0424   -5.4891 N   0  0  2  0  0  0  0  0  0  0  0  0
    2.8317   -2.9146   -5.9033 H   0  0  0  0  0  0  0  0  0  0  0  0
    1.3529   -1.1815   -6.4116 H   0  0  0  0  0  0  0  0  0  0  0  0
   -0.3782   -0.3426   -4.8836 H   0  0  0  0  0  0  0  0  0  0  0  0
   -0.3586   -1.8015   -3.9944 H   0  0  0  0  0  0  0  0  0  0  0  0
   -0.9047   -1.5365   -6.9716 H   0  0  0  0  0  0  0  0  0  0  0  0
   -0.6731   -3.1251   -6.1802 H   0  0  0  0  0  0  0  0  0  0  0  0
   -2.8965   -2.7173   -6.0935 H   0  0  0  0  0  0  0  0  0  0  0  0
   -2.6786   -1.0630   -5.5567 H   0  0  0  0  0  0  0  0  0  0  0  0
   -2.3068   -2.4157   -4.4876 H   0  0  0  0  0  0  0  0  0  0  0  0
    1.3425    0.7726   -4.3888 N   0  0  0  0  0  0  0  0  0  0  0  0
    1.8615    1.9202   -3.6974 C   0  0  2  0  0  0  0  0  0  0  0  0
    0.7185    2.7894   -3.3625 C   0  0  0  0  0  0  0  0  0  0  0  0
    0.6909    4.0143   -3.3437 O   0  0  0  0  0  0  0  0  0  0  0  0
    3.2462    2.3642   -3.8807 C   0  0  0  0  0  0  0  0  0  0  0  0
    4.6064    1.5361   -3.1617 S   0  0  0  0  0  0  0  0  0  0  0  0
    0.8610    1.1596   -5.2431 H   0  0  0  0  0  0  0  0  0  0  0  0
    2.0228    1.4209   -2.6629 H   0  0  0  0  0  0  0  0  0  0  0  0
    3.4219    2.2584   -5.0231 H   0  0  0  0  0  0  0  0  0  0  0  0
    3.3349    3.5008   -3.8344 H   0  0  0  0  0  0  0  0  0  0  0  0
   -0.5394    2.1413   -2.9866 N   0  0  0  0  0  0  0  0  0  0  0  0
   -1.7247    2.7652   -2.5637 C   0  0  2  0  0  0  0  0  0  0  0  0
   -2.5112    2.3651   -1.3930 C   0  0  0  0  0  0  0  0  0  0  0  0
   -3.5464    3.0040   -1.1052 O   0  0  0  0  0  0  0  0  0  0  0  0
   -2.7769    2.8785   -3.7004 C   0  0  2  0  0  0  0  0  0  0  0  0
   -3.1738    1.5552   -4.2463 C   0  0  0  0  0  0  0  0  0  0  0  0
   -2.3570    3.8729   -4.7477 C   0  0  0  0  0  0  0  0  0  0  0  0
   -4.2181    1.7665   -5.3551 C   0  0  0  0  0  0  0  0  0  0  0  0
   -0.4978    1.1210   -3.0749 H   0  0  0  0  0  0  0  0  0  0  0  0
   -1.5953    3.8976   -2.4257 H   0  0  0  0  0  0  0  0  0  0  0  0
   -3.7060    3.3279   -3.2235 H   0  0  0  0  0  0  0  0  0  0  0  0
   -2.2720    1.1620   -4.7866 H   0  0  0  0  0  0  0  0  0  0  0  0
   -3.6056    0.8559   -3.5425 H   0  0  0  0  0  0  0  0  0  0  0  0
   -3.2852    4.2631   -5.2499 H   0  0  0  0  0  0  0  0  0  0  0  0
   -1.7378    3.4620   -5.5466 H   0  0  0  0  0  0  0  0  0  0  0  0
   -1.9300    4.7749   -4.2656 H   0  0  0  0  0  0  0  0  0  0  0  0
   -4.6888    0.7795   -5.5103 H   0  0  0  0  0  0  0  0  0  0  0  0
   -3.8044    2.1464   -6.2831 H   0  0  0  0  0  0  0  0  0  0  0  0
   -5.0252    2.4258   -4.9454 H   0  0  0  0  0  0  0  0  0  0  0  0
   -2.2274    1.2842   -0.5070 N   0  0  0  0  0  0  0  0  0  0  0  0
   -2.8721    0.9009    0.6926 C   0  0  2  0  0  0  0  0  0  0  0  0
   -2.3297    0.6005    1.9749 C   0  0  0  0  0  0  0  0  0  0  0  0
   -3.0339   -0.1029    2.7830 O   0  0  0  0  0  0  0  0  0  0  0  0
   -3.9270   -0.1000    0.2567 C   0  0  0  0  0  0  0  0  0  0  0  0
   -3.2440   -1.2432   -0.4893 C   0  0  0  0  0  0  0  0  0  0  0  0
   -4.1215   -2.2561   -1.0720 C   0  0  0  0  0  0  0  0  0  0  0  0
   -4.9377   -3.1257   -0.3524 N   0  0  0  0  0  0  0  0  0  0  0  0
   -4.4700   -4.1894    0.4649 C   0  0  0  0  0  0  0  0  0  0  0  0
   -5.4365   -5.0066    1.1424 N   0  0  0  0  0  0  0  0  0  0  0  0
   -3.1732   -4.4422    0.6079 N   0  0  0  0  0  0  0  0  0  0  0  0
   -1.4267    0.7223   -0.8555 H   0  0  0  0  0  0  0  0  0  0  0  0
   -3.6060    1.8113    0.9389 H   0  0  0  0  0  0  0  0  0  0  0  0
   -4.6837    0.3901   -0.4064 H   0  0  0  0  0  0  0  0  0  0  0  0
   -4.4130   -0.5745    1.1417 H   0  0  0  0  0  0  0  0  0  0  0  0
   -2.7021   -0.7471   -1.3455 H   0  0  0  0  0  0  0  0  0  0  0  0
   -2.5103   -1.7304    0.1882 H   0  0  0  0  0  0  0  0  0  0  0  0
   -3.4308   -2.9235   -1.7082 H   0  0  0  0  0  0  0  0  0  0  0  0
   -4.7399   -1.7499   -1.8818 H   0  0  0  0  0  0  0  0  0  0  0  0
   -5.9939   -3.0124   -0.3918 H   0  0  0  0  0  0  0  0  0  0  0  0
   -6.2872   -5.2868    0.6429 H   0  0  0  0  0  0  0  0  0  0  0  0
   -5.1879   -5.2746    2.1351 H   0  0  0  0  0  0  0  0  0  0  0  0
   -3.0596   -5.2984    1.2744 H   0  0  0  0  0  0  0  0  0  0  0  0
   -2.4136   -3.9481    0.1667 H   0  0  0  0  0  0  0  0  0  0  0  0
   -1.0894    0.9726    2.5483 N   0  0  0  0  0  0  0  0  0  0  0  0
   -0.4314    0.6650    3.7908 C   0  0  2  0  0  0  0  0  0  0  0  0
   -1.1334    1.4275    4.9204 C   0  0  0  0  0  0  0  0  0  0  0  0
   -0.7511    1.1844    6.1187 O   0  0  0  0  0  0  0  0  0  0  0  0
    1.0297    0.9373    3.9254 C   0  0  0  0  0  0  0  0  0  0  0  0
    2.2859    0.0755    3.1576 S   0  0  0  0  0  0  0  0  0  0  0  0
   -0.5484    1.6014    1.9610 H   0  0  0  0  0  0  0  0  0  0  0  0
   -0.6245   -0.3609    4.1748 H   0  0  0  0  0  0  0  0  0  0  0  0
    1.2147    2.0698    4.0598 H   0  0  0  0  0  0  0  0  0  0  0  0
    1.1636    0.6807    5.0380 H   0  0  0  0  0  0  0  0  0  0  0  0
   -2.1682    2.3503    4.6275 N   0  0  0  0  0  0  0  0  0  0  0  0
   -2.8910    3.0221    5.7253 C   0  0  2  0  0  0  0  0  0  0  0  0
   -4.1333    3.5744    5.1855 C   0  0  0  0  0  0  0  0  0  0  0  0
   -4.2997    3.7292    3.9296 O   0  0  0  0  0  0  0  0  0  0  0  0
   -1.9713    4.2523    6.0146 C   0  0  0  0  0  0  0  0  0  0  0  0
   -2.5579    5.0153    7.1350 C   0  0  0  0  0  0  0  0  0  0  0  0
   -3.4324    6.0955    6.9820 C   0  0  0  0  0  0  0  0  0  0  0  0
   -2.2334    4.5832    8.4151 C   0  0  0  0  0  0  0  0  0  0  0  0
   -3.8947    6.6322    8.1592 C   0  0  0  0  0  0  0  0  0  0  0  0
   -2.7121    5.1415    9.5608 C   0  0  0  0  0  0  0  0  0  0  0  0
   -3.5912    6.2236    9.4130 C   0  0  0  0  0  0  0  0  0  0  0  0
   -4.0984    6.8128   10.5825 O   0  0  0  0  0  0  0  0  0  0  0  0
   -2.3915    2.5152    3.6326 H   0  0  0  0  0  0  0  0  0  0  0  0
   -2.9274    2.4469    6.6393 H   0  0  0  0  0  0  0  0  0  0  0  0
   -0.9526    3.9057    6.1884 H   0  0  0  0  0  0  0  0  0  0  0  0
   -1.9810    4.9336    5.1452 H   0  0  0  0  0  0  0  0  0  0  0  0
   -3.6749    6.4387    5.9961 H   0  0  0  0  0  0  0  0  0  0  0  0
   -1.5438    3.7324    8.5380 H   0  0  0  0  0  0  0  0  0  0  0  0
   -4.5890    7.4829    8.0644 H   0  0  0  0  0  0  0  0  0  0  0  0
   -2.4810    4.8420   10.5614 H   0  0  0  0  0  0  0  0  0  0  0  0
   -4.3915    6.1111   11.2945 H   0  0  0  0  0  0  0  0  0  0  0  0
   -5.2638    3.9847    5.9737 N   0  0  0  0  0  0  0  0  0  0  0  0
   -6.3740    4.5171    5.2142 C   0  0  2  0  0  0  0  0  0  0  0  0
   -7.3133    5.3655    5.9351 C   0  0  0  0  0  0  0  0  0  0  0  0
   -8.2423    5.9098    5.2072 O   0  0  0  0  0  0  0  0  0  0  0  0
   -7.2035    3.3520    4.6282 C   0  0  0  0  0  0  0  0  0  0  0  0
   -5.2232    3.8703    6.9911 H   0  0  0  0  0  0  0  0  0  0  0  0
   -5.9998    5.0203    4.2904 H   0  0  0  0  0  0  0  0  0  0  0  0
   -8.1829    3.7941    4.3370 H   0  0  0  0  0  0  0  0  0  0  0  0
   -7.4263    2.5841    5.3840 H   0  0  0  0  0  0  0  0  0  0  0  0
   -6.7599    2.9628    3.6949 H   0  0  0  0  0  0  0  0  0  0  0  0
   -7.3626    5.6696    7.3018 N   0  0  0  0  0  0  0  0  0  0  0  0
   -8.3107    5.8226    7.7732 H   0  0  0  0  0  0  0  0  0  0  0  0
   -6.5537    5.7726    7.9420 H   0  0  0  0  0  0  0  0  0  0  0  0
    6.5707    0.9750    1.2269 H   0  0  0  0  0  0  0  0  0  0  0  0
    4.3489    1.9231   -0.3501 H   0  0  0  0  0  0  0  0  0  0  0  0
    6.7846    3.0242    0.6753 H   0  0  0  0  0  0  0  0  0  0  0  0
    5.2534    4.5022    1.6810 H   0  0  0  0  0  0  0  0  0  0  0  0
    6.0965    2.5281    2.5985 H   0  0  0  0  0  0  0  0  0  0  0  0
    3.7376    1.5381    1.3081 H   0  0  0  0  0  0  0  0  0  0  0  0
    2.9070    4.1692    1.6721 H   0  0  0  0  0  0  0  0  0  0  0  0
    4.0649    5.6186    0.7442 H   0  0  0  0  0  0  0  0  0  0  0  0
    1.4343   -1.9600   -2.1772 H   0  0  0  0  0  0  0  0  0  0  0  0
   -0.7420   -3.2273   -1.5366 H   0  0  0  0  0  0  0  0  0  0  0  0
    1.6655   -6.3988   -1.4890 H   0  0  0  0  0  0  0  0  0  0  0  0
    4.1719   -5.8753   -2.7851 H   0  0  0  0  0  0  0  0  0  0  0  0
    2.9325    0.0458   -5.4833 H   0  0  0  0  0  0  0  0  0  0  0  0
    3.4853   -1.3439   -3.5736 H   0  0  0  0  0  0  0  0  0  0  0  0
  1  2  1  0
  1 11  1  1
  1 12  1  0
  1 13  1  0
  2  3  1  0
  2  7  1  0
  3  4  1  0
  3 10  1  0
  4  5  1  0
  4 14  1  0
  5  6  1  0
  5  9  1  0
  6  7  1  0
  6 15  1  0
  7  8  1  0
  8 16  1  1
  8 17  1  0
  8171  1  0
  9 19  1  0
  9 21  1  0
 10 18  1  6
 10 20  1  0
 10118  1  0
 23 38  1  0
 38 39  1  0
 38 46  1  0
 39 40  1  0
 39 44  1  0
 39 47  1  1
 40 41  1  0
 40 48  1  6
 40 49  1  0
 41 42  1  0
 41 50  1  1
 41 51  1  0
 42 43  1  0
 42 52  1  1
 42 53  1  0
 43 54  1  6
 43 55  1  0
 44 45  1  0
 44 57  1  0
 57 58  1  0
 57 65  1  0
 58 59  1  0
 58 61  1  0
 58 66  1  6
 59 60  1  0
 59 76  1  0
 61 62  1  0
 61 67  1  6
 61 68  1  0
 62 63  1  0
 62 69  1  6
 62 70  1  0
 63 64  1  0
 63 71  1  1
 63 72  1  0
 64 73  1  1
 64 74  1  0
 64 75  1  0
 78 97  1  0
 97 98  1  0
 97104  1  0
 98 99  1  0
 98101  1  0
 98105  1  6
 99100  1  0
 99113  1  0
101102  1  0
101106  1  1
101107  1  0
102103  1  0
102108  1  6
102109  1  0
103110  1  6
103111  1  0
199207  1  0
207208  1  0
207209  1  0
 22 21  1  0
 23 22  1  0
 24 23  2  0
 25 22  1  0
 26 25  1  0
 27 26  1  0
 28 26  2  0
 29 27  2  0
 30 28  1  0
 30 29  1  0
 31 21  1  0
 22 32  1  1
 33 25  1  0
 34 25  1  0
 35 28  1  0
 36 29  1  0
 37 30  1  0
 56 43  1  0
 77 76  1  0
 78 77  1  0
 79 78  2  0
 80 77  1  0
 81 80  1  0
 82 81  2  0
 83 81  1  0
 84 82  1  0
 85 83  2  0
 86 85  1  0
 86 84  2  0
 87 86  1  0
 88 76  1  0
 77 89  1  1
 90 80  1  0
 91 80  1  0
 92 82  1  0
 93 83  1  0
 94 84  1  0
 95 85  1  0
 96 87  1  0
112103  1  0
114113  1  0
115114  1  0
116115  2  0
117114  1  0
118117  1  0
119113  1  0
114120  1  1
121117  1  0
122117  1  0
123115  1  0
124123  1  0
125124  1  0
126125  2  0
127124  1  0
128127  1  0
129127  1  0
130128  1  0
131123  1  0
124132  1  1
127133  1  1
134128  1  0
135128  1  0
136129  1  0
137129  1  0
138129  1  0
139130  1  0
140130  1  0
141130  1  0
142125  1  0
143142  1  0
144143  1  0
145144  2  0
146143  1  0
147146  1  0
148147  1  0
149148  1  0
150149  1  0
151150  1  0
152150  2  0
153142  1  0
143154  1  1
155146  1  0
156146  1  0
157147  1  0
158147  1  0
159148  1  0
160148  1  0
161149  1  0
162151  1  0
163151  1  0
164152  1  0
165152  1  0
166144  1  0
167166  1  0
168167  1  0
169168  2  0
170167  1  0
171170  1  0
172166  1  0
167173  1  1
174170  1  0
175170  1  0
176168  1  0
177176  1  0
178177  1  0
179178  2  0
180177  1  0
181180  1  0
182181  2  0
183181  1  0
184182  1  0
185183  2  0
186185  1  0
186184  2  0
187186  1  0
188176  1  0
177189  1  1
190180  1  0
191180  1  0
192182  1  0
193183  1  0
194184  1  0
195185  1  0
196187  1  0
197178  1  0
198197  1  0
199198  1  0
200199  2  0
201198  1  0
202197  1  0
198203  1  6
204201  1  0
205201  1  0
206201  1  0
  2210  1  1
  3211  1  6
  4212  1  0
  5213  1  0
  6214  1  0
  7215  1  0
  9216  1  0
 19217  1  0
 44218  1  0
 45219  1  0
 59220  1  0
 60221  1  0
 99222  1  0
100223  1  0
M  CHG  3  43   1 103   1 152   1
M  END
$$$$
BP70
     RDKit          3D

223228  0  0  0  0  0  0  0  0999 V2000
    2.3299    0.0164   -0.7559 C   0  0  2  0  0  0  0  0  0  0  0  0
    3.0956    1.2965   -1.0522 C   0  0  1  0  0  0  0  0  0  0  0  0
    3.9588    1.6118    0.1063 C   0  0  1  0  0  0  0  0  0  0  0  0
    5.4103    1.3389   -0.0317 C   0  0  0  0  0  0  0  0  0  0  0  0
    6.0103    1.2315   -1.3619 C   0  0  0  0  0  0  0  0  0  0  0  0
    5.1136    1.8318   -2.4160 C   0  0  0  0  0  0  0  0  0  0  0  0
    3.7937    1.1194   -2.3601 C   0  0  0  0  0  0  0  0  0  0  0  0
    2.8941    1.5511   -3.5111 C   0  0  2  0  0  0  0  0  0  0  0  0
    6.5227   -0.1391   -1.7673 C   0  0  0  0  0  0  0  0  0  0  0  0
    3.7973    3.0955    0.4332 C   0  0  1  0  0  0  0  0  0  0  0  0
    1.8444   -0.3379   -1.6911 H   0  0  0  0  0  0  0  0  0  0  0  0
    1.6178    0.1166    0.0741 H   0  0  0  0  0  0  0  0  0  0  0  0
    3.0474   -0.7671   -0.4434 H   0  0  0  0  0  0  0  0  0  0  0  0
    5.6487    0.3916    0.5398 H   0  0  0  0  0  0  0  0  0  0  0  0
    5.5195    1.7324   -3.4422 H   0  0  0  0  0  0  0  0  0  0  0  0
    2.6144    0.6739   -4.1494 H   0  0  0  0  0  0  0  0  0  0  0  0
    3.4906    2.2409   -4.1504 H   0  0  0  0  0  0  0  0  0  0  0  0
    4.7730    3.5695    0.6478 H   0  0  0  0  0  0  0  0  0  0  0  0
    7.9425   -0.0632   -1.7834 O   0  0  0  0  0  0  0  0  0  0  0  0
    3.4068    3.6365   -0.4849 H   0  0  0  0  0  0  0  0  0  0  0  0
    6.1813   -1.1802   -0.8698 N   0  0  0  0  0  0  0  0  0  0  0  0
    6.4392   -2.4830   -1.5024 C   0  0  2  0  0  0  0  0  0  0  0  0
    5.8312   -3.5371   -0.5841 C   0  0  0  0  0  0  0  0  0  0  0  0
    5.7847   -4.7394   -0.8890 O   0  0  0  0  0  0  0  0  0  0  0  0
    7.8666   -2.8127   -1.6800 C   0  0  0  0  0  0  0  0  0  0  0  0
    8.0273   -4.1403   -2.3299 C   0  0  0  0  0  0  0  0  0  0  0  0
    8.1460   -5.3619   -1.6743 N   0  0  0  0  0  0  0  0  0  0  0  0
    8.0910   -4.3306   -3.6674 C   0  0  0  0  0  0  0  0  0  0  0  0
    8.2829   -6.2686   -2.7389 C   0  0  0  0  0  0  0  0  0  0  0  0
    8.2466   -5.6385   -3.8758 N   0  0  0  0  0  0  0  0  0  0  0  0
    6.7685   -1.1333    0.0315 H   0  0  0  0  0  0  0  0  0  0  0  0
    5.9043   -2.5194   -2.4603 H   0  0  0  0  0  0  0  0  0  0  0  0
    8.4665   -2.1185   -2.2960 H   0  0  0  0  0  0  0  0  0  0  0  0
    8.3552   -2.9211   -0.6645 H   0  0  0  0  0  0  0  0  0  0  0  0
    8.0345   -3.6185   -4.5090 H   0  0  0  0  0  0  0  0  0  0  0  0
    8.3942   -7.3185   -2.4496 H   0  0  0  0  0  0  0  0  0  0  0  0
    8.3354   -6.1122   -4.8227 H   0  0  0  0  0  0  0  0  0  0  0  0
    5.2896   -3.2006    0.6705 N   0  0  0  0  0  0  0  0  0  0  0  0
    4.6022   -4.1347    1.5806 C   0  0  1  0  0  0  0  0  0  0  0  0
    5.3525   -4.3327    2.8365 C   0  0  2  0  0  0  0  0  0  0  0  0
    4.7543   -5.2819    3.8223 C   0  0  2  0  0  0  0  0  0  0  0  0
    4.6206   -6.6842    3.2152 C   0  0  1  0  0  0  0  0  0  0  0  0
    4.0152   -7.6016    4.2127 N   0  0  2  0  0  0  0  0  0  0  0  0
    3.2403   -3.4486    1.7469 C   0  0  0  0  0  0  0  0  0  0  0  0
    2.7267   -3.4253    0.4519 O   0  0  0  0  0  0  0  0  0  0  0  0
    5.3832   -2.2352    0.9826 H   0  0  0  0  0  0  0  0  0  0  0  0
    4.4533   -5.1056    1.0765 H   0  0  0  0  0  0  0  0  0  0  0  0
    5.5370   -3.3632    3.3553 H   0  0  0  0  0  0  0  0  0  0  0  0
    6.3602   -4.7651    2.5710 H   0  0  0  0  0  0  0  0  0  0  0  0
    3.8481   -4.9391    4.3179 H   0  0  0  0  0  0  0  0  0  0  0  0
    5.5233   -5.4188    4.6319 H   0  0  0  0  0  0  0  0  0  0  0  0
    4.0309   -6.6562    2.2942 H   0  0  0  0  0  0  0  0  0  0  0  0
    5.6243   -7.0865    2.9726 H   0  0  0  0  0  0  0  0  0  0  0  0
    4.3352   -7.3205    5.1728 H   0  0  0  0  0  0  0  0  0  0  0  0
    4.3244   -8.5961    3.9645 H   0  0  0  0  0  0  0  0  0  0  0  0
    2.9497   -7.5216    4.1129 H   0  0  0  0  0  0  0  0  0  0  0  0
    2.3724   -3.9674    2.7117 N   0  0  0  0  0  0  0  0  0  0  0  0
    1.1412   -3.2631    2.7976 C   0  0  2  0  0  0  0  0  0  0  0  0
    0.1980   -3.5199    3.8591 C   0  0  0  0  0  0  0  0  0  0  0  0
   -0.2360   -4.8731    3.9028 O   0  0  0  0  0  0  0  0  0  0  0  0
    0.3690   -3.3845    1.4733 C   0  0  2  0  0  0  0  0  0  0  0  0
    0.1142   -4.7808    1.0606 C   0  0  1  0  0  0  0  0  0  0  0  0
   -0.6247   -4.9033   -0.2759 C   0  0  1  0  0  0  0  0  0  0  0  0
   -1.9824   -4.2794   -0.2175 C   0  0  2  0  0  0  0  0  0  0  0  0
    2.2415   -4.9957    2.5440 H   0  0  0  0  0  0  0  0  0  0  0  0
    1.3478   -2.1202    2.8182 H   0  0  0  0  0  0  0  0  0  0  0  0
    0.8019   -2.7498    0.7251 H   0  0  0  0  0  0  0  0  0  0  0  0
   -0.6564   -2.9248    1.6919 H   0  0  0  0  0  0  0  0  0  0  0  0
    0.9904   -5.4334    0.9936 H   0  0  0  0  0  0  0  0  0  0  0  0
   -0.5955   -5.3252    1.7629 H   0  0  0  0  0  0  0  0  0  0  0  0
   -0.0385   -4.4936   -1.1022 H   0  0  0  0  0  0  0  0  0  0  0  0
   -0.7468   -5.9941   -0.4495 H   0  0  0  0  0  0  0  0  0  0  0  0
   -2.7081   -4.9361    0.3633 H   0  0  0  0  0  0  0  0  0  0  0  0
   -2.4595   -4.2074   -1.2222 H   0  0  0  0  0  0  0  0  0  0  0  0
   -2.0286   -3.2793    0.2334 H   0  0  0  0  0  0  0  0  0  0  0  0
    0.4914   -3.1000    5.2504 N   0  0  0  0  0  0  0  0  0  0  0  0
   -0.8448   -3.0520    5.8850 C   0  0  2  0  0  0  0  0  0  0  0  0
   -1.3676   -1.6330    5.5966 C   0  0  0  0  0  0  0  0  0  0  0  0
   -2.5428   -1.3088    5.6858 O   0  0  0  0  0  0  0  0  0  0  0  0
   -0.8984   -3.3112    7.3199 C   0  0  0  0  0  0  0  0  0  0  0  0
   -0.2329   -2.3573    8.2459 C   0  0  0  0  0  0  0  0  0  0  0  0
   -1.0699   -1.3152    8.6758 C   0  0  0  0  0  0  0  0  0  0  0  0
    1.0443   -2.4461    8.6955 C   0  0  0  0  0  0  0  0  0  0  0  0
   -0.6570   -0.3385    9.5636 C   0  0  0  0  0  0  0  0  0  0  0  0
    1.4945   -1.4781    9.5938 C   0  0  0  0  0  0  0  0  0  0  0  0
    0.6746   -0.4852    9.9939 C   0  0  0  0  0  0  0  0  0  0  0  0
    1.0766    0.5263   10.8994 O   0  0  0  0  0  0  0  0  0  0  0  0
    0.9762   -3.9122    5.6823 H   0  0  0  0  0  0  0  0  0  0  0  0
   -1.4938   -3.7380    5.3416 H   0  0  0  0  0  0  0  0  0  0  0  0
   -0.3710   -4.3085    7.5673 H   0  0  0  0  0  0  0  0  0  0  0  0
   -1.9361   -3.5268    7.6715 H   0  0  0  0  0  0  0  0  0  0  0  0
   -2.0884   -1.2271    8.3275 H   0  0  0  0  0  0  0  0  0  0  0  0
    1.6660   -3.2617    8.3511 H   0  0  0  0  0  0  0  0  0  0  0  0
   -1.2901    0.4430    9.9032 H   0  0  0  0  0  0  0  0  0  0  0  0
    2.5006   -1.5693    9.9493 H   0  0  0  0  0  0  0  0  0  0  0  0
    0.6561    1.4637   10.8105 H   0  0  0  0  0  0  0  0  0  0  0  0
   -0.4430   -0.6254    5.2117 N   0  0  0  0  0  0  0  0  0  0  0  0
   -0.7093    0.7666    4.9891 C   0  0  2  0  0  0  0  0  0  0  0  0
    0.1721    1.2999    3.8955 C   0  0  0  0  0  0  0  0  0  0  0  0
   -0.0850    0.6256    2.7288 O   0  0  0  0  0  0  0  0  0  0  0  0
   -0.4668    1.5664    6.2829 C   0  0  2  0  0  0  0  0  0  0  0  0
    0.9247    1.4201    6.7785 C   0  0  1  0  0  0  0  0  0  0  0  0
    1.0210    2.2757    8.0049 N   0  0  2  0  0  0  0  0  0  0  0  0
    0.5200   -0.9523    5.0682 H   0  0  0  0  0  0  0  0  0  0  0  0
   -1.7815    0.8806    4.8182 H   0  0  0  0  0  0  0  0  0  0  0  0
   -1.2415    1.2462    6.9907 H   0  0  0  0  0  0  0  0  0  0  0  0
   -0.6472    2.6534    6.0717 H   0  0  0  0  0  0  0  0  0  0  0  0
    1.1398    0.4047    7.1919 H   0  0  0  0  0  0  0  0  0  0  0  0
    1.6637    1.7801    6.0919 H   0  0  0  0  0  0  0  0  0  0  0  0
    1.7711    1.8712    8.6364 H   0  0  0  0  0  0  0  0  0  0  0  0
    0.0677    2.3058    8.4460 H   0  0  0  0  0  0  0  0  0  0  0  0
    1.3201    3.2524    7.6790 H   0  0  0  0  0  0  0  0  0  0  0  0
    0.2992    2.7020    3.8429 N   0  0  0  0  0  0  0  0  0  0  0  0
    0.0763    3.3968    2.6436 C   0  0  2  0  0  0  0  0  0  0  0  0
   -1.3323    3.3076    2.1550 C   0  0  0  0  0  0  0  0  0  0  0  0
   -2.2206    2.6584    2.7505 O   0  0  0  0  0  0  0  0  0  0  0  0
    0.9987    3.0841    1.5006 C   0  0  0  0  0  0  0  0  0  0  0  0
    2.7231    3.4356    1.8229 S   0  0  0  0  0  0  0  0  0  0  0  0
    1.2418    3.0049    4.2044 H   0  0  0  0  0  0  0  0  0  0  0  0
    0.2460    4.4877    2.8657 H   0  0  0  0  0  0  0  0  0  0  0  0
    0.7119    3.7929    0.6663 H   0  0  0  0  0  0  0  0  0  0  0  0
    0.7973    2.0876    1.0394 H   0  0  0  0  0  0  0  0  0  0  0  0
   -1.7529    3.9620    0.9762 N   0  0  0  0  0  0  0  0  0  0  0  0
   -3.1579    3.7923    0.4374 C   0  0  2  0  0  0  0  0  0  0  0  0
   -2.9107    2.5609   -0.3338 C   0  0  0  0  0  0  0  0  0  0  0  0
   -1.7518    2.0487   -0.0610 O   0  0  0  0  0  0  0  0  0  0  0  0
   -3.4658    4.9353   -0.4476 C   0  0  2  0  0  0  0  0  0  0  0  0
   -3.3350    6.2767    0.2876 C   0  0  0  0  0  0  0  0  0  0  0  0
   -4.8807    4.9380   -0.9793 C   0  0  0  0  0  0  0  0  0  0  0  0
   -4.2505    6.3857    1.4669 C   0  0  0  0  0  0  0  0  0  0  0  0
   -1.0921    4.5676    0.5071 H   0  0  0  0  0  0  0  0  0  0  0  0
   -3.8628    3.5941    1.2356 H   0  0  0  0  0  0  0  0  0  0  0  0
   -2.8061    4.9884   -1.3228 H   0  0  0  0  0  0  0  0  0  0  0  0
   -2.2780    6.5343    0.4925 H   0  0  0  0  0  0  0  0  0  0  0  0
   -3.6741    7.0340   -0.4695 H   0  0  0  0  0  0  0  0  0  0  0  0
   -5.6148    4.6629   -0.1887 H   0  0  0  0  0  0  0  0  0  0  0  0
   -5.0629    5.9716   -1.3567 H   0  0  0  0  0  0  0  0  0  0  0  0
   -5.0142    4.2462   -1.8343 H   0  0  0  0  0  0  0  0  0  0  0  0
   -3.6768    6.8983    2.2972 H   0  0  0  0  0  0  0  0  0  0  0  0
   -4.5805    5.4182    1.8927 H   0  0  0  0  0  0  0  0  0  0  0  0
   -5.1271    7.0353    1.2711 H   0  0  0  0  0  0  0  0  0  0  0  0
   -3.6094    1.8186   -1.2876 N   0  0  0  0  0  0  0  0  0  0  0  0
   -2.8482    0.5886   -1.6810 C   0  0  2  0  0  0  0  0  0  0  0  0
   -1.6641    1.3473   -2.3891 C   0  0  0  0  0  0  0  0  0  0  0  0
   -0.5464    0.8578   -2.4004 O   0  0  0  0  0  0  0  0  0  0  0  0
   -3.4281   -0.2056   -2.7495 C   0  0  0  0  0  0  0  0  0  0  0  0
   -2.5101   -1.4311   -2.8961 C   0  0  0  0  0  0  0  0  0  0  0  0
   -2.9172   -2.3442   -3.9981 C   0  0  0  0  0  0  0  0  0  0  0  0
   -2.7750   -1.6195   -5.2380 N   0  0  0  0  0  0  0  0  0  0  0  0
   -3.0620   -2.1601   -6.5261 C   0  0  0  0  0  0  0  0  0  0  0  0
   -2.8907   -1.4570   -7.7379 N   0  0  0  0  0  0  0  0  0  0  0  0
   -3.4762   -3.4062   -6.4816 N   0  0  0  0  0  0  0  0  0  0  0  0
   -4.4965    2.0486   -1.6643 H   0  0  0  0  0  0  0  0  0  0  0  0
   -2.3999    0.0602   -0.8670 H   0  0  0  0  0  0  0  0  0  0  0  0
   -3.3361    0.3202   -3.7268 H   0  0  0  0  0  0  0  0  0  0  0  0
   -4.4708   -0.5425   -2.5649 H   0  0  0  0  0  0  0  0  0  0  0  0
   -1.5015   -1.0636   -3.1286 H   0  0  0  0  0  0  0  0  0  0  0  0
   -2.4237   -1.9532   -1.9170 H   0  0  0  0  0  0  0  0  0  0  0  0
   -2.2368   -3.2129   -4.0606 H   0  0  0  0  0  0  0  0  0  0  0  0
   -3.9756   -2.6758   -3.8684 H   0  0  0  0  0  0  0  0  0  0  0  0
   -2.4209   -0.6076   -5.2667 H   0  0  0  0  0  0  0  0  0  0  0  0
   -3.5042   -1.5952   -8.5857 H   0  0  0  0  0  0  0  0  0  0  0  0
   -2.1263   -0.7363   -7.8973 H   0  0  0  0  0  0  0  0  0  0  0  0
   -3.7361   -3.9729   -7.3227 H   0  0  0  0  0  0  0  0  0  0  0  0
   -3.5518   -3.9394   -5.5726 H   0  0  0  0  0  0  0  0  0  0  0  0
   -1.8815    2.5836   -3.0341 N   0  0  0  0  0  0  0  0  0  0  0  0
   -0.9653    3.5152   -3.5909 C   0  0  2  0  0  0  0  0  0  0  0  0
   -1.5971    4.5223   -4.4085 C   0  0  0  0  0  0  0  0  0  0  0  0
   -0.8300    5.4879   -4.8052 O   0  0  0  0  0  0  0  0  0  0  0  0
    0.2939    2.8871   -4.2372 C   0  0  0  0  0  0  0  0  0  0  0  0
    1.4187    2.3561   -2.9651 S   0  0  0  0  0  0  0  0  0  0  0  0
   -2.9039    2.8314   -3.0975 H   0  0  0  0  0  0  0  0  0  0  0  0
   -0.4957    4.0016   -2.6262 H   0  0  0  0  0  0  0  0  0  0  0  0
    0.7463    3.6923   -4.8413 H   0  0  0  0  0  0  0  0  0  0  0  0
   -0.0646    2.0882   -4.8883 H   0  0  0  0  0  0  0  0  0  0  0  0
   -2.9357    4.6287   -4.8548 N   0  0  0  0  0  0  0  0  0  0  0  0
   -3.2313    5.8189   -5.6670 C   0  0  2  0  0  0  0  0  0  0  0  0
   -4.6413    6.1440   -5.6053 C   0  0  0  0  0  0  0  0  0  0  0  0
   -5.0571    7.2756   -6.0690 O   0  0  0  0  0  0  0  0  0  0  0  0
   -2.9705    5.4241   -7.1490 C   0  0  0  0  0  0  0  0  0  0  0  0
   -3.8448    4.3361   -7.5947 C   0  0  0  0  0  0  0  0  0  0  0  0
   -3.5906    3.0212   -7.2608 C   0  0  0  0  0  0  0  0  0  0  0  0
   -4.8890    4.6314   -8.4329 C   0  0  0  0  0  0  0  0  0  0  0  0
   -4.3582    1.9925   -7.7477 C   0  0  0  0  0  0  0  0  0  0  0  0
   -5.6815    3.5904   -8.9392 C   0  0  0  0  0  0  0  0  0  0  0  0
   -5.4349    2.2638   -8.6113 C   0  0  0  0  0  0  0  0  0  0  0  0
   -6.2101    1.2154   -9.1084 O   0  0  0  0  0  0  0  0  0  0  0  0
   -3.6020    3.9013   -4.6078 H   0  0  0  0  0  0  0  0  0  0  0  0
   -2.5465    6.6506   -5.4374 H   0  0  0  0  0  0  0  0  0  0  0  0
   -3.1750    6.3302   -7.7468 H   0  0  0  0  0  0  0  0  0  0  0  0
   -1.9148    5.1410   -7.3067 H   0  0  0  0  0  0  0  0  0  0  0  0
   -2.7614    2.7780   -6.6033 H   0  0  0  0  0  0  0  0  0  0  0  0
   -5.1748    5.6275   -8.7536 H   0  0  0  0  0  0  0  0  0  0  0  0
   -4.2189    0.9520   -7.5219 H   0  0  0  0  0  0  0  0  0  0  0  0
   -6.5099    3.7750   -9.6004 H   0  0  0  0  0  0  0  0  0  0  0  0
   -6.1705    0.9698  -10.1051 H   0  0  0  0  0  0  0  0  0  0  0  0
   -5.7014    5.3401   -5.0824 N   0  0  0  0  0  0  0  0  0  0  0  0
   -7.0938    5.8103   -5.0968 C   0  0  2  0  0  0  0  0  0  0  0  0
   -7.8394    5.2929   -3.9663 C   0  0  0  0  0  0  0  0  0  0  0  0
   -7.4156    4.5066   -3.0837 O   0  0  0  0  0  0  0  0  0  0  0  0
   -7.7702    5.2995   -6.3730 C   0  0  0  0  0  0  0  0  0  0  0  0
   -5.5072    4.4043   -4.6822 H   0  0  0  0  0  0  0  0  0  0  0  0
   -7.0949    6.9019   -5.1370 H   0  0  0  0  0  0  0  0  0  0  0  0
   -7.6140    5.9764   -7.2210 H   0  0  0  0  0  0  0  0  0  0  0  0
   -7.3291    4.3049   -6.6397 H   0  0  0  0  0  0  0  0  0  0  0  0
   -8.8369    5.1530   -6.1465 H   0  0  0  0  0  0  0  0  0  0  0  0
   -9.2103    5.7054   -3.8147 N   0  0  0  0  0  0  0  0  0  0  0  0
   -9.8014    6.0165   -4.6092 H   0  0  0  0  0  0  0  0  0  0  0  0
   -9.6829    5.7124   -2.8806 H   0  0  0  0  0  0  0  0  0  0  0  0
    2.2966    2.0768   -1.1812 H   0  0  0  0  0  0  0  0  0  0  0  0
    3.6060    1.0974    1.0481 H   0  0  0  0  0  0  0  0  0  0  0  0
    5.9723    2.1165    0.5746 H   0  0  0  0  0  0  0  0  0  0  0  0
    6.9225    1.9136   -1.3752 H   0  0  0  0  0  0  0  0  0  0  0  0
    5.0060    2.9128   -2.1183 H   0  0  0  0  0  0  0  0  0  0  0  0
    3.9916    0.0375   -2.5133 H   0  0  0  0  0  0  0  0  0  0  0  0
    6.1876   -0.3571   -2.7738 H   0  0  0  0  0  0  0  0  0  0  0  0
    8.1337    0.6022   -2.4843 H   0  0  0  0  0  0  0  0  0  0  0  0
    3.4554   -2.3543    2.0013 H   0  0  0  0  0  0  0  0  0  0  0  0
    3.4061   -3.3792   -0.2596 H   0  0  0  0  0  0  0  0  0  0  0  0
   -0.7838   -2.9902    3.5589 H   0  0  0  0  0  0  0  0  0  0  0  0
    0.0270   -5.2500    4.7794 H   0  0  0  0  0  0  0  0  0  0  0  0
    1.2178    0.9151    4.2025 H   0  0  0  0  0  0  0  0  0  0  0  0
   -0.8694    0.0231    2.7606 H   0  0  0  0  0  0  0  0  0  0  0  0
  1  2  1  0
  1 11  1  6
  1 12  1  0
  1 13  1  0
  2  3  1  0
  2  7  1  0
  3  4  1  0
  3 10  1  0
  4  5  1  0
  4 14  1  0
  5  6  1  0
  5  9  1  0
  6  7  1  0
  6 15  1  0
  7  8  1  0
  8 16  1  6
  8 17  1  0
  8171  1  0
  9 19  1  0
  9 21  1  0
 10 18  1  1
 10 20  1  0
 10118  1  0
 23 38  1  0
 38 39  1  0
 38 46  1  0
 39 40  1  0
 39 44  1  0
 39 47  1  6
 40 41  1  0
 40 48  1  1
 40 49  1  0
 41 42  1  0
 41 50  1  1
 41 51  1  0
 42 43  1  0
 42 52  1  6
 42 53  1  0
 43 54  1  1
 43 55  1  0
 44 45  1  0
 44 57  1  0
 57 58  1  0
 57 65  1  0
 58 59  1  0
 58 61  1  0
 58 66  1  1
 59 60  1  0
 59 76  1  0
 61 62  1  0
 61 67  1  6
 61 68  1  0
 62 63  1  0
 62 69  1  6
 62 70  1  0
 63 64  1  0
 63 71  1  6
 63 72  1  0
 64 73  1  1
 64 74  1  0
 64 75  1  0
 78 97  1  0
 97 98  1  0
 97104  1  0
 98 99  1  0
 98101  1  0
 98105  1  6
 99100  1  0
 99113  1  0
101102  1  0
101106  1  1
101107  1  0
102103  1  0
102108  1  1
102109  1  0
103110  1  1
103111  1  0
199207  1  0
207208  1  0
207209  1  0
 22 21  1  0
 23 22  1  0
 24 23  2  0
 25 22  1  0
 26 25  1  0
 27 26  1  0
 28 26  2  0
 29 27  2  0
 30 28  1  0
 30 29  1  0
 31 21  1  0
 22 32  1  6
 33 25  1  0
 34 25  1  0
 35 28  1  0
 36 29  1  0
 37 30  1  0
 56 43  1  0
 77 76  1  0
 78 77  1  0
 79 78  2  0
 80 77  1  0
 81 80  1  0
 82 81  2  0
 83 81  1  0
 84 82  1  0
 85 83  2  0
 86 85  1  0
 86 84  2  0
 87 86  1  0
 88 76  1  0
 77 89  1  6
 90 80  1  0
 91 80  1  0
 92 82  1  0
 93 83  1  0
 94 84  1  0
 95 85  1  0
 96 87  1  0
112103  1  0
114113  1  0
115114  1  0
116115  2  0
117114  1  0
118117  1  0
119113  1  0
114120  1  1
121117  1  0
122117  1  0
123115  1  0
124123  1  0
125124  1  0
126125  2  0
127124  1  0
128127  1  0
129127  1  0
130128  1  0
131123  1  0
124132  1  1
127133  1  6
134128  1  0
135128  1  0
136129  1  0
137129  1  0
138129  1  0
139130  1  0
140130  1  0
141130  1  0
142125  1  0
143142  1  0
144143  1  0
145144  2  0
146143  1  0
147146  1  0
148147  1  0
149148  1  0
150149  1  0
151150  1  0
152150  2  0
153142  1  0
143154  1  1
155146  1  0
156146  1  0
157147  1  0
158147  1  0
159148  1  0
160148  1  0
161149  1  0
162151  1  0
163151  1  0
164152  1  0
165152  1  0
166144  1  0
167166  1  0
168167  1  0
169168  2  0
170167  1  0
171170  1  0
172166  1  0
167173  1  1
174170  1  0
175170  1  0
176168  1  0
177176  1  0
178177  1  0
179178  2  0
180177  1  0
181180  1  0
182181  2  0
183181  1  0
184182  1  0
185183  2  0
186185  1  0
186184  2  0
187186  1  0
188176  1  0
177189  1  1
190180  1  0
191180  1  0
192182  1  0
193183  1  0
194184  1  0
195185  1  0
196187  1  0
197178  1  0
198197  1  0
199198  1  0
200199  2  0
201198  1  0
202197  1  0
198203  1  6
204201  1  0
205201  1  0
206201  1  0
  2210  1  6
  3211  1  1
  4212  1  0
  5213  1  0
  6214  1  0
  7215  1  0
  9216  1  0
 19217  1  0
 44218  1  0
 45219  1  0
 59220  1  0
 60221  1  0
 99222  1  0
100223  1  0
M  CHG  3  43   1 103   1 152   1
M  END
$$$$
BP70
     RDKit          3D

223228  0  0  0  0  0  0  0  0999 V2000
   -1.2575    2.3926   -1.2417 C   0  0  2  0  0  0  0  0  0  0  0  0
   -0.3618    1.2769   -1.5825 C   0  0  1  0  0  0  0  0  0  0  0  0
    0.6769    0.9227   -0.5047 C   0  0  1  0  0  0  0  0  0  0  0  0
    0.1884   -0.2787    0.3057 C   0  0  0  0  0  0  0  0  0  0  0  0
   -1.3053   -0.2345    0.4405 C   0  0  0  0  0  0  0  0  0  0  0  0
   -1.9897   -0.4306   -0.9005 C   0  0  0  0  0  0  0  0  0  0  0  0
   -1.0376   -0.0120   -2.0298 C   0  0  0  0  0  0  0  0  0  0  0  0
   -1.8040    0.1498   -3.2786 C   0  0  2  0  0  0  0  0  0  0  0  0
   -1.7883   -1.2453    1.4439 C   0  0  0  0  0  0  0  0  0  0  0  0
    1.9116    0.5419   -1.2349 C   0  0  1  0  0  0  0  0  0  0  0  0
   -1.3878    3.1249   -2.1117 H   0  0  0  0  0  0  0  0  0  0  0  0
   -0.7167    3.0393   -0.4863 H   0  0  0  0  0  0  0  0  0  0  0  0
   -2.2768    2.1533   -0.9197 H   0  0  0  0  0  0  0  0  0  0  0  0
    0.6465   -0.2655    1.2866 H   0  0  0  0  0  0  0  0  0  0  0  0
   -2.2634   -1.4832   -1.0442 H   0  0  0  0  0  0  0  0  0  0  0  0
   -1.9299    1.2837   -3.4160 H   0  0  0  0  0  0  0  0  0  0  0  0
   -2.8771   -0.2123   -3.0837 H   0  0  0  0  0  0  0  0  0  0  0  0
    1.7733   -0.5742   -1.4634 H   0  0  0  0  0  0  0  0  0  0  0  0
   -2.9736   -1.8683    1.0878 O   0  0  0  0  0  0  0  0  0  0  0  0
    1.8449    0.9668   -2.3132 H   0  0  0  0  0  0  0  0  0  0  0  0
   -1.7212   -0.7796    2.7605 N   0  0  0  0  0  0  0  0  0  0  0  0
   -2.7597   -0.8897    3.6801 C   0  0  2  0  0  0  0  0  0  0  0  0
   -3.9200    0.0206    3.5723 C   0  0  0  0  0  0  0  0  0  0  0  0
   -4.7151    0.0629    4.5236 O   0  0  0  0  0  0  0  0  0  0  0  0
   -2.1798   -0.6223    5.0823 C   0  0  0  0  0  0  0  0  0  0  0  0
   -1.1358   -1.6167    5.4067 C   0  0  0  0  0  0  0  0  0  0  0  0
   -0.7149   -2.6377    4.6125 N   0  0  0  0  0  0  0  0  0  0  0  0
   -0.4158   -1.6760    6.5724 C   0  0  0  0  0  0  0  0  0  0  0  0
    0.2453   -3.3228    5.2619 C   0  0  0  0  0  0  0  0  0  0  0  0
    0.4050   -2.7177    6.4478 N   0  0  0  0  0  0  0  0  0  0  0  0
   -0.7631   -0.7267    3.1596 H   0  0  0  0  0  0  0  0  0  0  0  0
   -3.1234   -1.9729    3.6592 H   0  0  0  0  0  0  0  0  0  0  0  0
   -1.7506    0.4187    5.0822 H   0  0  0  0  0  0  0  0  0  0  0  0
   -2.9666   -0.6305    5.8475 H   0  0  0  0  0  0  0  0  0  0  0  0
   -0.5429   -0.9804    7.3912 H   0  0  0  0  0  0  0  0  0  0  0  0
    0.7923   -4.1806    4.9298 H   0  0  0  0  0  0  0  0  0  0  0  0
    1.0803   -2.9967    7.2121 H   0  0  0  0  0  0  0  0  0  0  0  0
   -4.2252    0.8590    2.4755 N   0  0  0  0  0  0  0  0  0  0  0  0
   -5.2495    1.8552    2.3936 C   0  0  1  0  0  0  0  0  0  0  0  0
   -6.6069    1.3919    2.7581 C   0  0  2  0  0  0  0  0  0  0  0  0
   -7.1757    0.3064    1.9099 C   0  0  2  0  0  0  0  0  0  0  0  0
   -6.4004   -0.9601    1.8585 C   0  0  1  0  0  0  0  0  0  0  0  0
   -7.1632   -1.9208    0.9904 N   0  0  2  0  0  0  0  0  0  0  0  0
   -4.8299    3.0738    3.2773 C   0  0  0  0  0  0  0  0  0  0  0  0
   -5.7964    4.0048    3.1019 O   0  0  0  0  0  0  0  0  0  0  0  0
   -3.6354    0.7082    1.6500 H   0  0  0  0  0  0  0  0  0  0  0  0
   -5.2993    2.2317    1.3352 H   0  0  0  0  0  0  0  0  0  0  0  0
   -7.3488    2.2500    2.7802 H   0  0  0  0  0  0  0  0  0  0  0  0
   -6.6582    1.0002    3.8209 H   0  0  0  0  0  0  0  0  0  0  0  0
   -7.4639    0.6852    0.9026 H   0  0  0  0  0  0  0  0  0  0  0  0
   -8.1749    0.0353    2.3743 H   0  0  0  0  0  0  0  0  0  0  0  0
   -5.4166   -0.8477    1.3460 H   0  0  0  0  0  0  0  0  0  0  0  0
   -6.3201   -1.4201    2.8495 H   0  0  0  0  0  0  0  0  0  0  0  0
   -8.1875   -1.7702    1.1832 H   0  0  0  0  0  0  0  0  0  0  0  0
   -6.8579   -2.9064    1.3126 H   0  0  0  0  0  0  0  0  0  0  0  0
   -6.8988   -1.7585   -0.0180 H   0  0  0  0  0  0  0  0  0  0  0  0
   -3.4954    3.3279    3.1550 N   0  0  0  0  0  0  0  0  0  0  0  0
   -2.6893    4.3145    3.7167 C   0  0  2  0  0  0  0  0  0  0  0  0
   -1.1968    4.0058    3.3304 C   0  0  0  0  0  0  0  0  0  0  0  0
   -1.1352    4.0812    1.9751 O   0  0  0  0  0  0  0  0  0  0  0  0
   -2.7696    4.6120    5.1713 C   0  0  2  0  0  0  0  0  0  0  0  0
   -4.0705    5.0830    5.7236 C   0  0  1  0  0  0  0  0  0  0  0  0
   -3.8240    5.3282    7.2353 C   0  0  1  0  0  0  0  0  0  0  0  0
   -3.3985    4.0477    7.9011 C   0  0  2  0  0  0  0  0  0  0  0  0
   -2.9380    2.6247    2.5886 H   0  0  0  0  0  0  0  0  0  0  0  0
   -2.9603    5.2912    3.2115 H   0  0  0  0  0  0  0  0  0  0  0  0
   -2.0827    5.5277    5.3335 H   0  0  0  0  0  0  0  0  0  0  0  0
   -2.4028    3.7820    5.8144 H   0  0  0  0  0  0  0  0  0  0  0  0
   -4.2387    6.1363    5.3356 H   0  0  0  0  0  0  0  0  0  0  0  0
   -4.9407    4.4613    5.5884 H   0  0  0  0  0  0  0  0  0  0  0  0
   -3.0230    6.0726    7.3860 H   0  0  0  0  0  0  0  0  0  0  0  0
   -4.7433    5.6856    7.7142 H   0  0  0  0  0  0  0  0  0  0  0  0
   -2.3137    3.8935    7.9671 H   0  0  0  0  0  0  0  0  0  0  0  0
   -3.9131    3.2086    7.3884 H   0  0  0  0  0  0  0  0  0  0  0  0
   -3.8129    4.0695    8.9478 H   0  0  0  0  0  0  0  0  0  0  0  0
   -0.3414    4.7276    4.1528 N   0  0  0  0  0  0  0  0  0  0  0  0
    1.0731    4.4508    4.0351 C   0  0  2  0  0  0  0  0  0  0  0  0
    1.7660    4.8745    2.8188 C   0  0  0  0  0  0  0  0  0  0  0  0
    2.8938    4.3970    2.6063 O   0  0  0  0  0  0  0  0  0  0  0  0
    1.4486    3.1133    4.5813 C   0  0  0  0  0  0  0  0  0  0  0  0
    2.8749    2.7412    4.4960 C   0  0  0  0  0  0  0  0  0  0  0  0
    3.7450    3.1975    5.4942 C   0  0  0  0  0  0  0  0  0  0  0  0
    3.3913    1.9240    3.4789 C   0  0  0  0  0  0  0  0  0  0  0  0
    5.0982    2.8417    5.4699 C   0  0  0  0  0  0  0  0  0  0  0  0
    4.7328    1.5771    3.4636 C   0  0  0  0  0  0  0  0  0  0  0  0
    5.6061    2.0328    4.4614 C   0  0  0  0  0  0  0  0  0  0  0  0
    6.9247    1.6614    4.3997 O   0  0  0  0  0  0  0  0  0  0  0  0
   -0.5659    4.3847    5.1597 H   0  0  0  0  0  0  0  0  0  0  0  0
    1.5017    5.1577    4.8413 H   0  0  0  0  0  0  0  0  0  0  0  0
    1.2008    3.0753    5.6865 H   0  0  0  0  0  0  0  0  0  0  0  0
    0.7896    2.2879    4.1606 H   0  0  0  0  0  0  0  0  0  0  0  0
    3.3828    3.8420    6.2959 H   0  0  0  0  0  0  0  0  0  0  0  0
    2.6888    1.5844    2.7305 H   0  0  0  0  0  0  0  0  0  0  0  0
    5.7861    3.1810    6.2360 H   0  0  0  0  0  0  0  0  0  0  0  0
    5.1406    0.9469    2.6675 H   0  0  0  0  0  0  0  0  0  0  0  0
    7.4000    1.1422    5.1165 H   0  0  0  0  0  0  0  0  0  0  0  0
    1.3055    5.7857    1.8474 N   0  0  0  0  0  0  0  0  0  0  0  0
    1.8945    6.1683    0.5985 C   0  0  2  0  0  0  0  0  0  0  0  0
    2.9995    5.3779    0.0051 C   0  0  0  0  0  0  0  0  0  0  0  0
    4.1451    5.1522    0.6492 O   0  0  0  0  0  0  0  0  0  0  0  0
    2.0931    7.6517    0.4691 C   0  0  2  0  0  0  0  0  0  0  0  0
    0.7703    8.3522    0.5674 C   0  0  1  0  0  0  0  0  0  0  0  0
    0.9735    9.8344    0.4401 N   0  0  2  0  0  0  0  0  0  0  0  0
    0.4090    6.2500    2.1015 H   0  0  0  0  0  0  0  0  0  0  0  0
    1.0268    5.9207   -0.1476 H   0  0  0  0  0  0  0  0  0  0  0  0
    2.4887    7.8162   -0.5680 H   0  0  0  0  0  0  0  0  0  0  0  0
    2.8288    8.0342    1.2147 H   0  0  0  0  0  0  0  0  0  0  0  0
    0.1016    8.1215   -0.2952 H   0  0  0  0  0  0  0  0  0  0  0  0
    0.2925    8.1890    1.5571 H   0  0  0  0  0  0  0  0  0  0  0  0
    1.4307   10.1891    1.3286 H   0  0  0  0  0  0  0  0  0  0  0  0
    0.0352   10.2915    0.2878 H   0  0  0  0  0  0  0  0  0  0  0  0
    1.6363   10.0098   -0.3834 H   0  0  0  0  0  0  0  0  0  0  0  0
    2.5986    4.2086   -0.7840 N   0  0  0  0  0  0  0  0  0  0  0  0
    3.8876    3.5267   -1.1620 C   0  0  2  0  0  0  0  0  0  0  0  0
    3.7218    3.0720   -2.5628 C   0  0  0  0  0  0  0  0  0  0  0  0
    2.6880    3.4169   -3.1635 O   0  0  0  0  0  0  0  0  0  0  0  0
    4.1435    2.3878   -0.2502 C   0  0  0  0  0  0  0  0  0  0  0  0
    3.4650    0.8188   -0.5354 S   0  0  0  0  0  0  0  0  0  0  0  0
    2.1684    3.5845   -0.0696 H   0  0  0  0  0  0  0  0  0  0  0  0
    4.7257    4.2510   -1.0963 H   0  0  0  0  0  0  0  0  0  0  0  0
    5.2832    2.3591   -0.1267 H   0  0  0  0  0  0  0  0  0  0  0  0
    3.8256    2.7505    0.7843 H   0  0  0  0  0  0  0  0  0  0  0  0
    4.6228    2.2661   -3.3170 N   0  0  0  0  0  0  0  0  0  0  0  0
    4.4110    2.0687   -4.7306 C   0  0  2  0  0  0  0  0  0  0  0  0
    4.0265    0.7172   -5.0831 C   0  0  0  0  0  0  0  0  0  0  0  0
    3.9003    0.4426   -6.3289 O   0  0  0  0  0  0  0  0  0  0  0  0
    5.6365    2.4661   -5.5380 C   0  0  2  0  0  0  0  0  0  0  0  0
    5.9943    3.9271   -5.3245 C   0  0  0  0  0  0  0  0  0  0  0  0
    5.3683    2.3160   -7.0182 C   0  0  0  0  0  0  0  0  0  0  0  0
    4.8997    4.8547   -5.7313 C   0  0  0  0  0  0  0  0  0  0  0  0
    5.3938    1.8703   -2.7615 H   0  0  0  0  0  0  0  0  0  0  0  0
    3.5321    2.7118   -5.0403 H   0  0  0  0  0  0  0  0  0  0  0  0
    6.4695    1.8155   -5.2579 H   0  0  0  0  0  0  0  0  0  0  0  0
    6.2797    4.1399   -4.2732 H   0  0  0  0  0  0  0  0  0  0  0  0
    6.9045    4.1766   -5.9288 H   0  0  0  0  0  0  0  0  0  0  0  0
    4.2991    2.5810   -7.2641 H   0  0  0  0  0  0  0  0  0  0  0  0
    5.9457    3.1009   -7.5976 H   0  0  0  0  0  0  0  0  0  0  0  0
    5.6782    1.3672   -7.4574 H   0  0  0  0  0  0  0  0  0  0  0  0
    4.0472    4.3018   -6.1746 H   0  0  0  0  0  0  0  0  0  0  0  0
    4.5705    5.5423   -4.9297 H   0  0  0  0  0  0  0  0  0  0  0  0
    5.2685    5.5242   -6.5386 H   0  0  0  0  0  0  0  0  0  0  0  0
    3.7479   -0.4002   -4.2591 N   0  0  0  0  0  0  0  0  0  0  0  0
    3.3838   -1.7318   -4.8381 C   0  0  2  0  0  0  0  0  0  0  0  0
    1.9287   -1.8264   -4.5237 C   0  0  0  0  0  0  0  0  0  0  0  0
    1.3895   -0.8340   -4.0474 O   0  0  0  0  0  0  0  0  0  0  0  0
    4.0835   -2.8221   -4.1068 C   0  0  0  0  0  0  0  0  0  0  0  0
    5.6003   -2.7168   -4.1621 C   0  0  0  0  0  0  0  0  0  0  0  0
    6.1284   -3.8953   -3.3712 C   0  0  0  0  0  0  0  0  0  0  0  0
    5.7187   -3.9169   -1.9886 N   0  0  0  0  0  0  0  0  0  0  0  0
    6.1450   -3.0154   -0.9925 C   0  0  0  0  0  0  0  0  0  0  0  0
    5.6077   -3.1864    0.3384 N   0  0  0  0  0  0  0  0  0  0  0  0
    6.9664   -2.0462   -1.1724 N   0  0  0  0  0  0  0  0  0  0  0  0
    3.8067   -0.2492   -3.2618 H   0  0  0  0  0  0  0  0  0  0  0  0
    3.5538   -1.7540   -5.9163 H   0  0  0  0  0  0  0  0  0  0  0  0
    3.8123   -3.7801   -4.5841 H   0  0  0  0  0  0  0  0  0  0  0  0
    3.8110   -2.7885   -3.0449 H   0  0  0  0  0  0  0  0  0  0  0  0
    5.9563   -2.8490   -5.2037 H   0  0  0  0  0  0  0  0  0  0  0  0
    5.9219   -1.7866   -3.6998 H   0  0  0  0  0  0  0  0  0  0  0  0
    7.2495   -3.9492   -3.4457 H   0  0  0  0  0  0  0  0  0  0  0  0
    5.7197   -4.8080   -3.8473 H   0  0  0  0  0  0  0  0  0  0  0  0
    5.0405   -4.6760   -1.6725 H   0  0  0  0  0  0  0  0  0  0  0  0
    5.1552   -4.0634    0.6517 H   0  0  0  0  0  0  0  0  0  0  0  0
    5.6613   -2.4057    1.0484 H   0  0  0  0  0  0  0  0  0  0  0  0
    7.4324   -1.7963   -2.0790 H   0  0  0  0  0  0  0  0  0  0  0  0
    7.2238   -1.4376   -0.3748 H   0  0  0  0  0  0  0  0  0  0  0  0
    1.1040   -2.9468   -4.7278 N   0  0  0  0  0  0  0  0  0  0  0  0
   -0.2657   -3.0821   -4.2585 C   0  0  2  0  0  0  0  0  0  0  0  0
   -0.6974   -4.4951   -4.2445 C   0  0  0  0  0  0  0  0  0  0  0  0
    0.0832   -5.4012   -4.6612 O   0  0  0  0  0  0  0  0  0  0  0  0
   -1.2653   -2.2541   -5.0250 C   0  0  0  0  0  0  0  0  0  0  0  0
   -1.2286   -0.4976   -4.8100 S   0  0  0  0  0  0  0  0  0  0  0  0
    1.5170   -3.7192   -5.2548 H   0  0  0  0  0  0  0  0  0  0  0  0
   -0.2797   -2.6958   -3.2164 H   0  0  0  0  0  0  0  0  0  0  0  0
   -1.2514   -2.5562   -6.1156 H   0  0  0  0  0  0  0  0  0  0  0  0
   -2.2879   -2.6014   -4.7047 H   0  0  0  0  0  0  0  0  0  0  0  0
   -1.9627   -4.8596   -3.7816 N   0  0  0  0  0  0  0  0  0  0  0  0
   -2.5809   -6.1351   -3.7008 C   0  0  2  0  0  0  0  0  0  0  0  0
   -3.5689   -6.2439   -4.8594 C   0  0  0  0  0  0  0  0  0  0  0  0
   -4.6335   -6.8992   -4.6909 O   0  0  0  0  0  0  0  0  0  0  0  0
   -3.3119   -6.5261   -2.4859 C   0  0  0  0  0  0  0  0  0  0  0  0
   -2.5467   -6.5555   -1.2342 C   0  0  0  0  0  0  0  0  0  0  0  0
   -1.8073   -7.6464   -0.8369 C   0  0  0  0  0  0  0  0  0  0  0  0
   -2.5848   -5.4681   -0.3967 C   0  0  0  0  0  0  0  0  0  0  0  0
   -1.1204   -7.6544    0.3729 C   0  0  0  0  0  0  0  0  0  0  0  0
   -1.9179   -5.4541    0.7963 C   0  0  0  0  0  0  0  0  0  0  0  0
   -1.1728   -6.5361    1.2127 C   0  0  0  0  0  0  0  0  0  0  0  0
   -0.4927   -6.5456    2.4090 O   0  0  0  0  0  0  0  0  0  0  0  0
   -2.5666   -4.0475   -3.4132 H   0  0  0  0  0  0  0  0  0  0  0  0
   -1.8089   -6.9567   -3.9065 H   0  0  0  0  0  0  0  0  0  0  0  0
   -3.6786   -7.5771   -2.6437 H   0  0  0  0  0  0  0  0  0  0  0  0
   -4.2624   -5.9418   -2.3336 H   0  0  0  0  0  0  0  0  0  0  0  0
   -1.7182   -8.5450   -1.4389 H   0  0  0  0  0  0  0  0  0  0  0  0
   -3.1794   -4.6227   -0.7336 H   0  0  0  0  0  0  0  0  0  0  0  0
   -0.5273   -8.5014    0.7016 H   0  0  0  0  0  0  0  0  0  0  0  0
   -1.9500   -4.6004    1.4612 H   0  0  0  0  0  0  0  0  0  0  0  0
   -0.5359   -5.7529    3.0516 H   0  0  0  0  0  0  0  0  0  0  0  0
   -3.2998   -5.6310   -6.0978 N   0  0  0  0  0  0  0  0  0  0  0  0
   -4.1476   -5.6385   -7.2513 C   0  0  2  0  0  0  0  0  0  0  0  0
   -4.4287   -7.0181   -7.7254 C   0  0  0  0  0  0  0  0  0  0  0  0
   -5.1179   -7.1172   -8.8053 O   0  0  0  0  0  0  0  0  0  0  0  0
   -3.5895   -4.7521   -8.3222 C   0  0  0  0  0  0  0  0  0  0  0  0
   -2.3643   -5.1311   -6.1733 H   0  0  0  0  0  0  0  0  0  0  0  0
   -5.1853   -5.2900   -6.9146 H   0  0  0  0  0  0  0  0  0  0  0  0
   -4.3863   -4.1697   -8.8081 H   0  0  0  0  0  0  0  0  0  0  0  0
   -3.0900   -5.3457   -9.1355 H   0  0  0  0  0  0  0  0  0  0  0  0
   -2.8574   -4.0077   -7.8976 H   0  0  0  0  0  0  0  0  0  0  0  0
   -4.0354   -8.2269   -7.1381 N   0  0  0  0  0  0  0  0  0  0  0  0
   -3.0681   -8.5566   -6.9459 H   0  0  0  0  0  0  0  0  0  0  0  0
   -4.8207   -8.8885   -6.8491 H   0  0  0  0  0  0  0  0  0  0  0  0
    0.2255    1.5933   -2.4988 H   0  0  0  0  0  0  0  0  0  0  0  0
    0.8305    1.7907    0.1365 H   0  0  0  0  0  0  0  0  0  0  0  0
    0.4727   -1.2065   -0.2131 H   0  0  0  0  0  0  0  0  0  0  0  0
   -1.5103    0.8164    0.8325 H   0  0  0  0  0  0  0  0  0  0  0  0
   -2.8784    0.2177   -0.9856 H   0  0  0  0  0  0  0  0  0  0  0  0
   -0.2474   -0.7674   -2.0129 H   0  0  0  0  0  0  0  0  0  0  0  0
   -1.0106   -2.0920    1.3601 H   0  0  0  0  0  0  0  0  0  0  0  0
   -2.8609   -2.6236    0.4928 H   0  0  0  0  0  0  0  0  0  0  0  0
   -5.0209    2.6208    4.3131 H   0  0  0  0  0  0  0  0  0  0  0  0
   -6.5569    3.9598    3.7099 H   0  0  0  0  0  0  0  0  0  0  0  0
   -1.1794    2.8857    3.5437 H   0  0  0  0  0  0  0  0  0  0  0  0
   -1.6422    4.8712    1.6407 H   0  0  0  0  0  0  0  0  0  0  0  0
    3.3517    6.1055   -0.8763 H   0  0  0  0  0  0  0  0  0  0  0  0
    4.8528    5.8073    0.6196 H   0  0  0  0  0  0  0  0  0  0  0  0
  1  2  1  0
  1 11  1  6
  1 12  1  0
  1 13  1  0
  2  3  1  0
  2  7  1  0
  3  4  1  0
  3 10  1  0
  4  5  1  0
  4 14  1  0
  5  6  1  0
  5  9  1  0
  6  7  1  0
  6 15  1  0
  7  8  1  0
  8 16  1  6
  8 17  1  0
  8171  1  0
  9 19  1  0
  9 21  1  0
 10 18  1  6
 10 20  1  0
 10118  1  0
 23 38  1  0
 38 39  1  0
 38 46  1  0
 39 40  1  0
 39 44  1  0
 39 47  1  6
 40 41  1  0
 40 48  1  1
 40 49  1  0
 41 42  1  0
 41 50  1  6
 41 51  1  0
 42 43  1  0
 42 52  1  6
 42 53  1  0
 43 54  1  6
 43 55  1  0
 44 45  1  0
 44 57  1  0
 57 58  1  0
 57 65  1  0
 58 59  1  0
 58 61  1  0
 58 66  1  6
 59 60  1  0
 59 76  1  0
 61 62  1  0
 61 67  1  6
 61 68  1  0
 62 63  1  0
 62 69  1  6
 62 70  1  0
 63 64  1  0
 63 71  1  6
 63 72  1  0
 64 73  1  1
 64 74  1  0
 64 75  1  0
 78 97  1  0
 97 98  1  0
 97104  1  0
 98 99  1  0
 98101  1  0
 98105  1  6
 99100  1  0
 99113  1  0
101102  1  0
101106  1  6
101107  1  0
102103  1  0
102108  1  6
102109  1  0
103110  1  1
103111  1  0
199207  1  0
207208  1  0
207209  1  0
 22 21  1  0
 23 22  1  0
 24 23  2  0
 25 22  1  0
 26 25  1  0
 27 26  1  0
 28 26  2  0
 29 27  2  0
 30 28  1  0
 30 29  1  0
 31 21  1  0
 22 32  1  1
 33 25  1  0
 34 25  1  0
 35 28  1  0
 36 29  1  0
 37 30  1  0
 56 43  1  0
 77 76  1  0
 78 77  1  0
 79 78  2  0
 80 77  1  0
 81 80  1  0
 82 81  2  0
 83 81  1  0
 84 82  1  0
 85 83  2  0
 86 85  1  0
 86 84  2  0
 87 86  1  0
 88 76  1  0
 77 89  1  1
 90 80  1  0
 91 80  1  0
 92 82  1  0
 93 83  1  0
 94 84  1  0
 95 85  1  0
 96 87  1  0
112103  1  0
114113  1  0
115114  1  0
116115  2  0
117114  1  0
118117  1  0
119113  1  0
114120  1  6
121117  1  0
122117  1  0
123115  1  0
124123  1  0
125124  1  0
126125  2  0
127124  1  0
128127  1  0
129127  1  0
130128  1  0
131123  1  0
124132  1  6
127133  1  1
134128  1  0
135128  1  0
136129  1  0
137129  1  0
138129  1  0
139130  1  0
140130  1  0
141130  1  0
142125  1  0
143142  1  0
144143  1  0
145144  2  0
146143  1  0
147146  1  0
148147  1  0
149148  1  0
150149  1  0
151150  1  0
152150  2  0
153142  1  0
143154  1  6
155146  1  0
156146  1  0
157147  1  0
158147  1  0
159148  1  0
160148  1  0
161149  1  0
162151  1  0
163151  1  0
164152  1  0
165152  1  0
166144  1  0
167166  1  0
168167  1  0
169168  2  0
170167  1  0
171170  1  0
172166  1  0
167173  1  1
174170  1  0
175170  1  0
176168  1  0
177176  1  0
178177  1  0
179178  2  0
180177  1  0
181180  1  0
182181  2  0
183181  1  0
184182  1  0
185183  2  0
186185  1  0
186184  2  0
187186  1  0
188176  1  0
177189  1  6
190180  1  0
191180  1  0
192182  1  0
193183  1  0
194184  1  0
195185  1  0
196187  1  0
197178  1  0
198197  1  0
199198  1  0
200199  2  0
201198  1  0
202197  1  0
198203  1  1
204201  1  0
205201  1  0
206201  1  0
  2210  1  6
  3211  1  1
  4212  1  0
  5213  1  0
  6214  1  0
  7215  1  0
  9216  1  0
 19217  1  0
 44218  1  0
 45219  1  0
 59220  1  0
 60221  1  0
 99222  1  0
100223  1  0
M  CHG  3  43   1 103   1 152   1
M  END
$$$$
BP70
     RDKit          3D

223228  0  0  0  0  0  0  0  0999 V2000
   -0.6420    1.3690    1.3805 C   0  0  2  0  0  0  0  0  0  0  0  0
    0.6004    2.1197    1.6936 C   0  0  1  0  0  0  0  0  0  0  0  0
    1.5067    2.4309    0.5378 C   0  0  1  0  0  0  0  0  0  0  0  0
    2.6216    3.3396    0.9641 C   0  0  0  0  0  0  0  0  0  0  0  0
    2.8205    3.5146    2.4367 C   0  0  0  0  0  0  0  0  0  0  0  0
    1.5510    3.7343    3.1948 C   0  0  0  0  0  0  0  0  0  0  0  0
    0.3238    3.4563    2.3336 C   0  0  0  0  0  0  0  0  0  0  0  0
   -0.8624    3.5886    3.1948 C   0  0  2  0  0  0  0  0  0  0  0  0
    3.7329    2.4814    3.0610 C   0  0  0  0  0  0  0  0  0  0  0  0
    2.1447    1.2509   -0.1375 C   0  0  1  0  0  0  0  0  0  0  0  0
   -0.4768    0.2640    1.1927 H   0  0  0  0  0  0  0  0  0  0  0  0
   -1.3153    1.8359    0.6372 H   0  0  0  0  0  0  0  0  0  0  0  0
   -1.2809    1.3006    2.3183 H   0  0  0  0  0  0  0  0  0  0  0  0
    2.4904    4.3486    0.4668 H   0  0  0  0  0  0  0  0  0  0  0  0
    1.4263    4.7511    3.6141 H   0  0  0  0  0  0  0  0  0  0  0  0
   -0.8433    4.6595    3.5799 H   0  0  0  0  0  0  0  0  0  0  0  0
   -0.8062    3.0039    4.1444 H   0  0  0  0  0  0  0  0  0  0  0  0
    2.6589    1.6354   -1.0803 H   0  0  0  0  0  0  0  0  0  0  0  0
    5.0856    2.8422    2.7569 O   0  0  0  0  0  0  0  0  0  0  0  0
    3.0185    0.9014    0.4625 H   0  0  0  0  0  0  0  0  0  0  0  0
    3.5784    2.4470    4.4939 N   0  0  0  0  0  0  0  0  0  0  0  0
    4.4192    1.5169    5.1452 C   0  0  2  0  0  0  0  0  0  0  0  0
    4.1294    0.0886    5.0142 C   0  0  0  0  0  0  0  0  0  0  0  0
    4.9263   -0.7308    5.5255 O   0  0  0  0  0  0  0  0  0  0  0  0
    4.5552    1.8191    6.6463 C   0  0  0  0  0  0  0  0  0  0  0  0
    5.1328    3.1396    6.8853 C   0  0  0  0  0  0  0  0  0  0  0  0
    6.4739    3.3497    7.0061 N   0  0  0  0  0  0  0  0  0  0  0  0
    4.5702    4.3847    7.0378 C   0  0  0  0  0  0  0  0  0  0  0  0
    6.7295    4.6475    7.2204 C   0  0  0  0  0  0  0  0  0  0  0  0
    5.5433    5.3154    7.2427 N   0  0  0  0  0  0  0  0  0  0  0  0
    3.7640    3.3967    4.8680 H   0  0  0  0  0  0  0  0  0  0  0  0
    5.4857    1.6355    4.7742 H   0  0  0  0  0  0  0  0  0  0  0  0
    3.5299    1.6697    7.0432 H   0  0  0  0  0  0  0  0  0  0  0  0
    5.1664    0.9863    7.0602 H   0  0  0  0  0  0  0  0  0  0  0  0
    3.5037    4.5579    6.9963 H   0  0  0  0  0  0  0  0  0  0  0  0
    7.6765    5.1594    7.3601 H   0  0  0  0  0  0  0  0  0  0  0  0
    5.3880    6.3350    7.3839 H   0  0  0  0  0  0  0  0  0  0  0  0
    3.0229   -0.5138    4.3660 N   0  0  0  0  0  0  0  0  0  0  0  0
    2.8507   -1.9887    4.3035 C   0  0  1  0  0  0  0  0  0  0  0  0
    1.4963   -2.2297    4.8629 C   0  0  2  0  0  0  0  0  0  0  0  0
    1.0036   -3.6267    4.9490 C   0  0  2  0  0  0  0  0  0  0  0  0
   -0.4043   -3.5299    5.5625 C   0  0  1  0  0  0  0  0  0  0  0  0
   -0.9567   -4.8845    5.6730 N   0  0  2  0  0  0  0  0  0  0  0  0
    2.9690   -2.4430    2.8591 C   0  0  0  0  0  0  0  0  0  0  0  0
    1.9726   -1.7957    2.1690 O   0  0  0  0  0  0  0  0  0  0  0  0
    2.3337    0.1050    3.9575 H   0  0  0  0  0  0  0  0  0  0  0  0
    3.6414   -2.4535    4.8844 H   0  0  0  0  0  0  0  0  0  0  0  0
    0.7433   -1.5906    4.3083 H   0  0  0  0  0  0  0  0  0  0  0  0
    1.4903   -1.7589    5.8958 H   0  0  0  0  0  0  0  0  0  0  0  0
    1.6109   -4.2381    5.6104 H   0  0  0  0  0  0  0  0  0  0  0  0
    0.9006   -4.0441    3.9283 H   0  0  0  0  0  0  0  0  0  0  0  0
   -0.3329   -3.1246    6.5910 H   0  0  0  0  0  0  0  0  0  0  0  0
   -1.0930   -2.9489    4.9208 H   0  0  0  0  0  0  0  0  0  0  0  0
   -0.2894   -5.5230    6.1827 H   0  0  0  0  0  0  0  0  0  0  0  0
   -1.1695   -5.2451    4.6833 H   0  0  0  0  0  0  0  0  0  0  0  0
   -1.8973   -4.8227    6.2010 H   0  0  0  0  0  0  0  0  0  0  0  0
    4.2307   -2.0705    2.3028 N   0  0  0  0  0  0  0  0  0  0  0  0
    4.2681   -2.1642    0.8444 C   0  0  2  0  0  0  0  0  0  0  0  0
    4.4059   -3.5224    0.2740 C   0  0  0  0  0  0  0  0  0  0  0  0
    4.3182   -3.4871   -1.1056 O   0  0  0  0  0  0  0  0  0  0  0  0
    5.5617   -1.3945    0.5050 C   0  0  2  0  0  0  0  0  0  0  0  0
    5.8610   -1.2685   -0.9382 C   0  0  1  0  0  0  0  0  0  0  0  0
    4.8359   -0.5080   -1.7408 C   0  0  1  0  0  0  0  0  0  0  0  0
    5.1831   -0.4123   -3.2174 C   0  0  2  0  0  0  0  0  0  0  0  0
    4.3903   -1.0578    2.5083 H   0  0  0  0  0  0  0  0  0  0  0  0
    3.4314   -1.5960    0.4004 H   0  0  0  0  0  0  0  0  0  0  0  0
    6.4352   -1.8978    0.9830 H   0  0  0  0  0  0  0  0  0  0  0  0
    5.5289   -0.3706    0.9401 H   0  0  0  0  0  0  0  0  0  0  0  0
    6.7880   -0.6053   -0.9818 H   0  0  0  0  0  0  0  0  0  0  0  0
    6.2170   -2.1948   -1.4456 H   0  0  0  0  0  0  0  0  0  0  0  0
    3.8449   -0.9330   -1.5842 H   0  0  0  0  0  0  0  0  0  0  0  0
    4.9016    0.5526   -1.3651 H   0  0  0  0  0  0  0  0  0  0  0  0
    4.2186   -0.2662   -3.7708 H   0  0  0  0  0  0  0  0  0  0  0  0
    5.7412   -1.2859   -3.5470 H   0  0  0  0  0  0  0  0  0  0  0  0
    5.8062    0.4958   -3.4318 H   0  0  0  0  0  0  0  0  0  0  0  0
    3.6089   -4.5903    0.7897 N   0  0  0  0  0  0  0  0  0  0  0  0
    3.6357   -5.7393   -0.1364 C   0  0  2  0  0  0  0  0  0  0  0  0
    2.6748   -5.5965   -1.2467 C   0  0  0  0  0  0  0  0  0  0  0  0
    2.6680   -6.3585   -2.2262 O   0  0  0  0  0  0  0  0  0  0  0  0
    3.4408   -7.0478    0.6001 C   0  0  0  0  0  0  0  0  0  0  0  0
    2.1662   -7.1414    1.3199 C   0  0  0  0  0  0  0  0  0  0  0  0
    1.0638   -7.6233    0.6163 C   0  0  0  0  0  0  0  0  0  0  0  0
    2.0012   -6.7894    2.6451 C   0  0  0  0  0  0  0  0  0  0  0  0
   -0.1673   -7.7556    1.1991 C   0  0  0  0  0  0  0  0  0  0  0  0
    0.7652   -6.9295    3.2054 C   0  0  0  0  0  0  0  0  0  0  0  0
   -0.3240   -7.3995    2.5308 C   0  0  0  0  0  0  0  0  0  0  0  0
   -1.5901   -7.5516    3.0748 O   0  0  0  0  0  0  0  0  0  0  0  0
    4.1112   -4.9284    1.6766 H   0  0  0  0  0  0  0  0  0  0  0  0
    4.6559   -5.7999   -0.5668 H   0  0  0  0  0  0  0  0  0  0  0  0
    3.4859   -7.8583   -0.1683 H   0  0  0  0  0  0  0  0  0  0  0  0
    4.2913   -7.2598    1.2836 H   0  0  0  0  0  0  0  0  0  0  0  0
    1.1774   -7.8955   -0.4174 H   0  0  0  0  0  0  0  0  0  0  0  0
    2.8782   -6.4173    3.1643 H   0  0  0  0  0  0  0  0  0  0  0  0
   -1.0331   -8.1389    0.6394 H   0  0  0  0  0  0  0  0  0  0  0  0
    0.6564   -6.6528    4.2425 H   0  0  0  0  0  0  0  0  0  0  0  0
   -1.7364   -8.2075    3.8183 H   0  0  0  0  0  0  0  0  0  0  0  0
    1.6519   -4.5728   -1.3012 N   0  0  0  0  0  0  0  0  0  0  0  0
    0.7052   -4.5305   -2.4251 C   0  0  2  0  0  0  0  0  0  0  0  0
    0.2957   -3.1159   -2.7247 C   0  0  0  0  0  0  0  0  0  0  0  0
    1.5376   -2.4993   -3.0631 O   0  0  0  0  0  0  0  0  0  0  0  0
   -0.4516   -5.4715   -2.1428 C   0  0  2  0  0  0  0  0  0  0  0  0
   -1.3766   -5.4387   -3.3253 C   0  0  1  0  0  0  0  0  0  0  0  0
   -0.5519   -5.9090   -4.4796 N   0  0  2  0  0  0  0  0  0  0  0  0
    1.6647   -3.9294   -0.5182 H   0  0  0  0  0  0  0  0  0  0  0  0
    1.2208   -4.9727   -3.2777 H   0  0  0  0  0  0  0  0  0  0  0  0
   -0.9450   -5.2992   -1.1730 H   0  0  0  0  0  0  0  0  0  0  0  0
   -0.0037   -6.4978   -2.1624 H   0  0  0  0  0  0  0  0  0  0  0  0
   -2.1871   -6.2084   -3.2301 H   0  0  0  0  0  0  0  0  0  0  0  0
   -1.7530   -4.4709   -3.6146 H   0  0  0  0  0  0  0  0  0  0  0  0
    0.1210   -6.6496   -4.1160 H   0  0  0  0  0  0  0  0  0  0  0  0
   -0.0243   -5.0898   -4.8820 H   0  0  0  0  0  0  0  0  0  0  0  0
   -1.2117   -6.3339   -5.1996 H   0  0  0  0  0  0  0  0  0  0  0  0
   -0.3597   -2.4626   -1.6821 N   0  0  0  0  0  0  0  0  0  0  0  0
   -0.9204   -1.1995   -1.7251 C   0  0  2  0  0  0  0  0  0  0  0  0
   -2.1288   -1.0207   -2.5418 C   0  0  0  0  0  0  0  0  0  0  0  0
   -2.6135   -1.9753   -3.1357 O   0  0  0  0  0  0  0  0  0  0  0  0
    0.0189   -0.0127   -1.9228 C   0  0  0  0  0  0  0  0  0  0  0  0
    1.1897   -0.1249   -0.5744 S   0  0  0  0  0  0  0  0  0  0  0  0
    0.1246   -2.6242   -0.7870 H   0  0  0  0  0  0  0  0  0  0  0  0
   -1.3684   -1.0632   -0.6448 H   0  0  0  0  0  0  0  0  0  0  0  0
   -0.4863    0.9577   -1.8096 H   0  0  0  0  0  0  0  0  0  0  0  0
    0.4640   -0.0070   -2.9234 H   0  0  0  0  0  0  0  0  0  0  0  0
   -2.7788    0.2274   -2.6780 N   0  0  0  0  0  0  0  0  0  0  0  0
   -4.0164    0.5000   -3.3622 C   0  0  2  0  0  0  0  0  0  0  0  0
   -5.0879    0.7873   -2.3803 C   0  0  0  0  0  0  0  0  0  0  0  0
   -6.2742    0.9782   -2.5855 O   0  0  0  0  0  0  0  0  0  0  0  0
   -4.4922   -0.4218   -4.4006 C   0  0  2  0  0  0  0  0  0  0  0  0
   -3.6487   -0.6005   -5.6188 C   0  0  0  0  0  0  0  0  0  0  0  0
   -5.8687    0.0546   -4.9075 C   0  0  0  0  0  0  0  0  0  0  0  0
   -4.3669   -1.6081   -6.5183 C   0  0  0  0  0  0  0  0  0  0  0  0
   -2.3080    1.0272   -2.2341 H   0  0  0  0  0  0  0  0  0  0  0  0
   -3.7748    1.4565   -3.9498 H   0  0  0  0  0  0  0  0  0  0  0  0
   -4.7197   -1.4497   -3.9958 H   0  0  0  0  0  0  0  0  0  0  0  0
   -2.6373   -0.9331   -5.4817 H   0  0  0  0  0  0  0  0  0  0  0  0
   -3.7067    0.3844   -6.1699 H   0  0  0  0  0  0  0  0  0  0  0  0
   -5.9697    1.1570   -4.8489 H   0  0  0  0  0  0  0  0  0  0  0  0
   -5.9937   -0.1800   -5.9973 H   0  0  0  0  0  0  0  0  0  0  0  0
   -6.6973   -0.4129   -4.3848 H   0  0  0  0  0  0  0  0  0  0  0  0
   -3.6845   -2.4223   -6.8111 H   0  0  0  0  0  0  0  0  0  0  0  0
   -5.2030   -2.0892   -5.9713 H   0  0  0  0  0  0  0  0  0  0  0  0
   -4.8331   -1.1118   -7.4068 H   0  0  0  0  0  0  0  0  0  0  0  0
   -4.6710    0.8496   -1.0124 N   0  0  0  0  0  0  0  0  0  0  0  0
   -5.5529    1.0561    0.1240 C   0  0  2  0  0  0  0  0  0  0  0  0
   -5.2838    2.4434    0.5734 C   0  0  0  0  0  0  0  0  0  0  0  0
   -5.9595    2.9126    1.4874 O   0  0  0  0  0  0  0  0  0  0  0  0
   -5.2292    0.0487    1.2040 C   0  0  0  0  0  0  0  0  0  0  0  0
   -6.0875    0.1635    2.4086 C   0  0  0  0  0  0  0  0  0  0  0  0
   -7.5623   -0.0607    2.1214 C   0  0  0  0  0  0  0  0  0  0  0  0
   -7.7752   -1.3970    1.5750 N   0  0  0  0  0  0  0  0  0  0  0  0
   -9.0657   -1.8904    1.2340 C   0  0  0  0  0  0  0  0  0  0  0  0
   -9.1407   -3.2000    0.7131 N   0  0  0  0  0  0  0  0  0  0  0  0
  -10.1104   -1.1398    1.4061 N   0  0  0  0  0  0  0  0  0  0  0  0
   -3.6800    0.7421   -0.8267 H   0  0  0  0  0  0  0  0  0  0  0  0
   -6.6132    1.0107   -0.1019 H   0  0  0  0  0  0  0  0  0  0  0  0
   -5.2541   -0.9871    0.8305 H   0  0  0  0  0  0  0  0  0  0  0  0
   -4.1825    0.3129    1.5360 H   0  0  0  0  0  0  0  0  0  0  0  0
   -5.8177   -0.5845    3.1994 H   0  0  0  0  0  0  0  0  0  0  0  0
   -5.9972    1.1387    2.9206 H   0  0  0  0  0  0  0  0  0  0  0  0
   -8.0749   -0.0614    3.1030 H   0  0  0  0  0  0  0  0  0  0  0  0
   -7.9986    0.7190    1.5008 H   0  0  0  0  0  0  0  0  0  0  0  0
   -6.9330   -2.0174    1.4283 H   0  0  0  0  0  0  0  0  0  0  0  0
   -8.7711   -3.9902    1.3139 H   0  0  0  0  0  0  0  0  0  0  0  0
   -9.5553   -3.3991   -0.2504 H   0  0  0  0  0  0  0  0  0  0  0  0
  -11.0666   -1.4722    1.1671 H   0  0  0  0  0  0  0  0  0  0  0  0
   -9.9733   -0.1822    1.7963 H   0  0  0  0  0  0  0  0  0  0  0  0
   -4.2769    3.3149    0.0251 N   0  0  0  0  0  0  0  0  0  0  0  0
   -4.1982    4.6338    0.6238 C   0  0  2  0  0  0  0  0  0  0  0  0
   -4.2290    5.6713   -0.4260 C   0  0  0  0  0  0  0  0  0  0  0  0
   -4.8128    6.7619   -0.1054 O   0  0  0  0  0  0  0  0  0  0  0  0
   -2.7790    4.7686    1.2441 C   0  0  0  0  0  0  0  0  0  0  0  0
   -2.4732    3.4486    2.4039 S   0  0  0  0  0  0  0  0  0  0  0  0
   -3.7244    2.9244   -0.7206 H   0  0  0  0  0  0  0  0  0  0  0  0
   -4.9367    4.7785    1.4050 H   0  0  0  0  0  0  0  0  0  0  0  0
   -2.1161    4.7643    0.3677 H   0  0  0  0  0  0  0  0  0  0  0  0
   -2.7425    5.7323    1.7446 H   0  0  0  0  0  0  0  0  0  0  0  0
   -3.6664    5.5415   -1.7300 N   0  0  0  0  0  0  0  0  0  0  0  0
   -3.8444    6.6739   -2.6144 C   0  0  2  0  0  0  0  0  0  0  0  0
   -3.5641    6.4377   -4.0231 C   0  0  0  0  0  0  0  0  0  0  0  0
   -3.9533    7.3261   -4.8577 O   0  0  0  0  0  0  0  0  0  0  0  0
   -3.0059    7.8845   -2.1318 C   0  0  0  0  0  0  0  0  0  0  0  0
   -1.5637    7.6018   -2.0836 C   0  0  0  0  0  0  0  0  0  0  0  0
   -0.7523    7.7681   -3.1911 C   0  0  0  0  0  0  0  0  0  0  0  0
   -0.9679    7.1828   -0.9106 C   0  0  0  0  0  0  0  0  0  0  0  0
    0.6077    7.5093   -3.0742 C   0  0  0  0  0  0  0  0  0  0  0  0
    0.3680    6.9213   -0.7703 C   0  0  0  0  0  0  0  0  0  0  0  0
    1.1701    7.0875   -1.8720 C   0  0  0  0  0  0  0  0  0  0  0  0
    2.5234    6.8245   -1.7342 O   0  0  0  0  0  0  0  0  0  0  0  0
   -3.1675    4.6657   -1.9770 H   0  0  0  0  0  0  0  0  0  0  0  0
   -4.8787    7.0346   -2.4335 H   0  0  0  0  0  0  0  0  0  0  0  0
   -3.2008    8.7470   -2.8345 H   0  0  0  0  0  0  0  0  0  0  0  0
   -3.4467    8.1979   -1.1731 H   0  0  0  0  0  0  0  0  0  0  0  0
   -1.1444    8.0942   -4.1520 H   0  0  0  0  0  0  0  0  0  0  0  0
   -1.6148    7.0640   -0.0597 H   0  0  0  0  0  0  0  0  0  0  0  0
    1.2874    7.6226   -3.9129 H   0  0  0  0  0  0  0  0  0  0  0  0
    0.7454    6.6039    0.1765 H   0  0  0  0  0  0  0  0  0  0  0  0
    2.9614    5.9269   -1.8652 H   0  0  0  0  0  0  0  0  0  0  0  0
   -2.8912    5.3234   -4.5869 N   0  0  0  0  0  0  0  0  0  0  0  0
   -2.7252    5.3333   -6.0269 C   0  0  2  0  0  0  0  0  0  0  0  0
   -2.5757    3.9841   -6.5699 C   0  0  0  0  0  0  0  0  0  0  0  0
   -2.5858    2.9222   -5.8776 O   0  0  0  0  0  0  0  0  0  0  0  0
   -1.4008    6.0536   -6.3864 C   0  0  0  0  0  0  0  0  0  0  0  0
   -2.5557    4.5737   -3.9560 H   0  0  0  0  0  0  0  0  0  0  0  0
   -3.4998    5.9273   -6.5418 H   0  0  0  0  0  0  0  0  0  0  0  0
   -0.5957    5.7018   -5.7390 H   0  0  0  0  0  0  0  0  0  0  0  0
   -1.1739    5.7310   -7.4238 H   0  0  0  0  0  0  0  0  0  0  0  0
   -1.5553    7.1404   -6.4074 H   0  0  0  0  0  0  0  0  0  0  0  0
   -2.4047    3.8141   -7.9705 N   0  0  0  0  0  0  0  0  0  0  0  0
   -1.5171    3.3795   -8.3684 H   0  0  0  0  0  0  0  0  0  0  0  0
   -3.1303    4.1064   -8.6648 H   0  0  0  0  0  0  0  0  0  0  0  0
    1.1353    1.5068    2.4758 H   0  0  0  0  0  0  0  0  0  0  0  0
    0.8920    2.9654   -0.2094 H   0  0  0  0  0  0  0  0  0  0  0  0
    3.5790    2.9769    0.5455 H   0  0  0  0  0  0  0  0  0  0  0  0
    3.3939    4.4836    2.5599 H   0  0  0  0  0  0  0  0  0  0  0  0
    1.5090    3.0221    4.0368 H   0  0  0  0  0  0  0  0  0  0  0  0
    0.3195    4.2676    1.5736 H   0  0  0  0  0  0  0  0  0  0  0  0
    3.6376    1.4838    2.6481 H   0  0  0  0  0  0  0  0  0  0  0  0
    5.5404    3.2335    3.5270 H   0  0  0  0  0  0  0  0  0  0  0  0
    2.7268   -3.5100    2.8565 H   0  0  0  0  0  0  0  0  0  0  0  0
    2.0579   -0.8260    2.1832 H   0  0  0  0  0  0  0  0  0  0  0  0
    5.5207   -3.8111    0.4448 H   0  0  0  0  0  0  0  0  0  0  0  0
    4.8631   -4.1164   -1.5981 H   0  0  0  0  0  0  0  0  0  0  0  0
   -0.3088   -3.0605   -3.6487 H   0  0  0  0  0  0  0  0  0  0  0  0
    1.6861   -2.6300   -4.0237 H   0  0  0  0  0  0  0  0  0  0  0  0
  1  2  1  0
  1 11  1  6
  1 12  1  0
  1 13  1  0
  2  3  1  0
  2  7  1  0
  3  4  1  0
  3 10  1  0
  4  5  1  0
  4 14  1  0
  5  6  1  0
  5  9  1  0
  6  7  1  0
  6 15  1  0
  7  8  1  0
  8 16  1  1
  8 17  1  0
  8171  1  0
  9 19  1  0
  9 21  1  0
 10 18  1  6
 10 20  1  0
 10118  1  0
 23 38  1  0
 38 39  1  0
 38 46  1  0
 39 40  1  0
 39 44  1  0
 39 47  1  1
 40 41  1  0
 40 48  1  6
 40 49  1  0
 41 42  1  0
 41 50  1  1
 41 51  1  0
 42 43  1  0
 42 52  1  1
 42 53  1  0
 43 54  1  1
 43 55  1  0
 44 45  1  0
 44 57  1  0
 57 58  1  0
 57 65  1  0
 58 59  1  0
 58 61  1  0
 58 66  1  6
 59 60  1  0
 59 76  1  0
 61 62  1  0
 61 67  1  1
 61 68  1  0
 62 63  1  0
 62 69  1  1
 62 70  1  0
 63 64  1  0
 63 71  1  6
 63 72  1  0
 64 73  1  6
 64 74  1  0
 64 75  1  0
 78 97  1  0
 97 98  1  0
 97104  1  0
 98 99  1  0
 98101  1  0
 98105  1  6
 99100  1  0
 99113  1  0
101102  1  0
101106  1  1
101107  1  0
102103  1  0
102108  1  1
102109  1  0
103110  1  1
103111  1  0
199207  1  0
207208  1  0
207209  1  0
 22 21  1  0
 23 22  1  0
 24 23  2  0
 25 22  1  0
 26 25  1  0
 27 26  1  0
 28 26  2  0
 29 27  2  0
 30 28  1  0
 30 29  1  0
 31 21  1  0
 22 32  1  6
 33 25  1  0
 34 25  1  0
 35 28  1  0
 36 29  1  0
 37 30  1  0
 56 43  1  0
 77 76  1  0
 78 77  1  0
 79 78  2  0
 80 77  1  0
 81 80  1  0
 82 81  2  0
 83 81  1  0
 84 82  1  0
 85 83  2  0
 86 85  1  0
 86 84  2  0
 87 86  1  0
 88 76  1  0
 77 89  1  6
 90 80  1  0
 91 80  1  0
 92 82  1  0
 93 83  1  0
 94 84  1  0
 95 85  1  0
 96 87  1  0
112103  1  0
114113  1  0
115114  1  0
116115  2  0
117114  1  0
118117  1  0
119113  1  0
114120  1  1
121117  1  0
122117  1  0
123115  1  0
124123  1  0
125124  1  0
126125  2  0
127124  1  0
128127  1  0
129127  1  0
130128  1  0
131123  1  0
124132  1  6
127133  1  1
134128  1  0
135128  1  0
136129  1  0
137129  1  0
138129  1  0
139130  1  0
140130  1  0
141130  1  0
142125  1  0
143142  1  0
144143  1  0
145144  2  0
146143  1  0
147146  1  0
148147  1  0
149148  1  0
150149  1  0
151150  1  0
152150  2  0
153142  1  0
143154  1  6
155146  1  0
156146  1  0
157147  1  0
158147  1  0
159148  1  0
160148  1  0
161149  1  0
162151  1  0
163151  1  0
164152  1  0
165152  1  0
166144  1  0
167166  1  0
168167  1  0
169168  2  0
170167  1  0
171170  1  0
172166  1  0
167173  1  1
174170  1  0
175170  1  0
176168  1  0
177176  1  0
178177  1  0
179178  2  0
180177  1  0
181180  1  0
182181  2  0
183181  1  0
184182  1  0
185183  2  0
186185  1  0
186184  2  0
187186  1  0
188176  1  0
177189  1  6
190180  1  0
191180  1  0
192182  1  0
193183  1  0
194184  1  0
195185  1  0
196187  1  0
197178  1  0
198197  1  0
199198  1  0
200199  2  0
201198  1  0
202197  1  0
198203  1  6
204201  1  0
205201  1  0
206201  1  0
  2210  1  1
  3211  1  6
  4212  1  0
  5213  1  0
  6214  1  0
  7215  1  0
  9216  1  0
 19217  1  0
 44218  1  0
 45219  1  0
 59220  1  0
 60221  1  0
 99222  1  0
100223  1  0
M  CHG  3  43   1 103   1 152   1
M  END
$$$$
BP70
     RDKit          3D

223228  0  0  0  0  0  0  0  0999 V2000
    0.1658   -5.4977    4.3031 C   0  0  2  0  0  0  0  0  0  0  0  0
    0.0212   -4.0545    3.8303 C   0  0  1  0  0  0  0  0  0  0  0  0
    0.9411   -3.2297    4.6228 C   0  0  1  0  0  0  0  0  0  0  0  0
    1.5153   -2.0019    4.0087 C   0  0  0  0  0  0  0  0  0  0  0  0
    2.1244   -2.2351    2.6629 C   0  0  0  0  0  0  0  0  0  0  0  0
    1.6768   -3.4615    1.9781 C   0  0  0  0  0  0  0  0  0  0  0  0
    0.3609   -4.0190    2.3708 C   0  0  0  0  0  0  0  0  0  0  0  0
   -0.7566   -3.2404    1.7175 C   0  0  2  0  0  0  0  0  0  0  0  0
    1.8157   -0.9782    1.8187 C   0  0  0  0  0  0  0  0  0  0  0  0
    0.5186   -3.0476    6.0296 C   0  0  1  0  0  0  0  0  0  0  0  0
   -0.0175   -6.2370    3.4955 H   0  0  0  0  0  0  0  0  0  0  0  0
   -0.5409   -5.7303    5.1259 H   0  0  0  0  0  0  0  0  0  0  0  0
    1.1837   -5.6891    4.6954 H   0  0  0  0  0  0  0  0  0  0  0  0
    2.3075   -1.6529    4.7366 H   0  0  0  0  0  0  0  0  0  0  0  0
    2.4140   -4.3104    2.1202 H   0  0  0  0  0  0  0  0  0  0  0  0
   -0.2914   -2.5295    0.9483 H   0  0  0  0  0  0  0  0  0  0  0  0
   -1.2531   -2.5967    2.4189 H   0  0  0  0  0  0  0  0  0  0  0  0
    0.0171   -4.0219    6.3903 H   0  0  0  0  0  0  0  0  0  0  0  0
    2.5739    0.0626    2.4610 O   0  0  0  0  0  0  0  0  0  0  0  0
    1.4621   -3.0846    6.7018 H   0  0  0  0  0  0  0  0  0  0  0  0
    2.2871   -1.1706    0.5292 N   0  0  0  0  0  0  0  0  0  0  0  0
    1.7018   -0.5673   -0.6066 C   0  0  2  0  0  0  0  0  0  0  0  0
    2.7077    0.4205   -1.1471 C   0  0  0  0  0  0  0  0  0  0  0  0
    2.5432    1.0422   -2.2153 O   0  0  0  0  0  0  0  0  0  0  0  0
    0.4745    0.2617   -0.2788 C   0  0  0  0  0  0  0  0  0  0  0  0
   -0.1653    0.7948   -1.5030 C   0  0  0  0  0  0  0  0  0  0  0  0
    0.1291    0.6639   -2.7894 N   0  0  0  0  0  0  0  0  0  0  0  0
   -1.3154    1.5802   -1.4815 C   0  0  0  0  0  0  0  0  0  0  0  0
   -0.7433    1.3011   -3.5793 C   0  0  0  0  0  0  0  0  0  0  0  0
   -1.6453    1.8738   -2.7715 N   0  0  0  0  0  0  0  0  0  0  0  0
    2.9679   -1.8769    0.3608 H   0  0  0  0  0  0  0  0  0  0  0  0
    1.4224   -1.2971   -1.4089 H   0  0  0  0  0  0  0  0  0  0  0  0
   -0.2898   -0.2629    0.3114 H   0  0  0  0  0  0  0  0  0  0  0  0
    0.8708    1.1672    0.2759 H   0  0  0  0  0  0  0  0  0  0  0  0
   -1.9038    1.9357   -0.6647 H   0  0  0  0  0  0  0  0  0  0  0  0
   -0.7608    1.3678   -4.6678 H   0  0  0  0  0  0  0  0  0  0  0  0
   -2.4514    2.4449   -3.1202 H   0  0  0  0  0  0  0  0  0  0  0  0
    3.9356    0.7343   -0.4889 N   0  0  0  0  0  0  0  0  0  0  0  0
    4.9153    1.6658   -0.9860 C   0  0  1  0  0  0  0  0  0  0  0  0
    5.5091    1.1670   -2.3045 C   0  0  2  0  0  0  0  0  0  0  0  0
    6.1665   -0.1617   -2.0427 C   0  0  2  0  0  0  0  0  0  0  0  0
    7.2847   -0.1138   -1.0364 C   0  0  1  0  0  0  0  0  0  0  0  0
    7.7763   -1.5233   -0.9563 N   0  0  2  0  0  0  0  0  0  0  0  0
    4.3045    3.0230   -1.1677 C   0  0  0  0  0  0  0  0  0  0  0  0
    5.3431    3.8321   -1.6834 O   0  0  0  0  0  0  0  0  0  0  0  0
    4.1139    0.2463    0.3793 H   0  0  0  0  0  0  0  0  0  0  0  0
    5.7504    1.8181   -0.2432 H   0  0  0  0  0  0  0  0  0  0  0  0
    6.2944    1.8457   -2.6687 H   0  0  0  0  0  0  0  0  0  0  0  0
    4.7316    1.1064   -3.0641 H   0  0  0  0  0  0  0  0  0  0  0  0
    6.6211   -0.5816   -2.9782 H   0  0  0  0  0  0  0  0  0  0  0  0
    5.4241   -0.9080   -1.6267 H   0  0  0  0  0  0  0  0  0  0  0  0
    8.1628    0.4723   -1.3993 H   0  0  0  0  0  0  0  0  0  0  0  0
    6.9710    0.1386   -0.0242 H   0  0  0  0  0  0  0  0  0  0  0  0
    8.8130   -1.4730   -0.6961 H   0  0  0  0  0  0  0  0  0  0  0  0
    7.6635   -1.9704   -1.9282 H   0  0  0  0  0  0  0  0  0  0  0  0
    7.2131   -2.0519   -0.2428 H   0  0  0  0  0  0  0  0  0  0  0  0
    3.9614    3.5924    0.1294 N   0  0  0  0  0  0  0  0  0  0  0  0
    3.6778    5.0310   -0.0425 C   0  0  2  0  0  0  0  0  0  0  0  0
    3.3512    5.6584    1.2546 C   0  0  0  0  0  0  0  0  0  0  0  0
    3.2614    7.0742    0.9750 O   0  0  0  0  0  0  0  0  0  0  0  0
    2.7307    5.2427   -1.1616 C   0  0  2  0  0  0  0  0  0  0  0  0
    2.3548    6.6832   -1.3568 C   0  0  1  0  0  0  0  0  0  0  0  0
    1.4420    6.7677   -2.5988 C   0  0  1  0  0  0  0  0  0  0  0  0
    1.0667    8.2102   -2.7797 C   0  0  2  0  0  0  0  0  0  0  0  0
    4.7409    3.5322    0.7871 H   0  0  0  0  0  0  0  0  0  0  0  0
    4.7107    5.4385   -0.3281 H   0  0  0  0  0  0  0  0  0  0  0  0
    1.8008    4.6498   -1.0057 H   0  0  0  0  0  0  0  0  0  0  0  0
    3.1256    4.8817   -2.1468 H   0  0  0  0  0  0  0  0  0  0  0  0
    1.7564    7.0901   -0.4966 H   0  0  0  0  0  0  0  0  0  0  0  0
    3.2227    7.3338   -1.5153 H   0  0  0  0  0  0  0  0  0  0  0  0
    2.0143    6.3914   -3.4693 H   0  0  0  0  0  0  0  0  0  0  0  0
    0.5896    6.1068   -2.4649 H   0  0  0  0  0  0  0  0  0  0  0  0
    0.1906    8.3132   -3.4530 H   0  0  0  0  0  0  0  0  0  0  0  0
    1.9458    8.7338   -3.1919 H   0  0  0  0  0  0  0  0  0  0  0  0
    0.8778    8.6331   -1.7539 H   0  0  0  0  0  0  0  0  0  0  0  0
    2.1720    5.2661    1.9261 N   0  0  0  0  0  0  0  0  0  0  0  0
    2.1533    4.0002    2.6020 C   0  0  2  0  0  0  0  0  0  0  0  0
    0.7064    3.7961    3.0312 C   0  0  0  0  0  0  0  0  0  0  0  0
   -0.0995    4.7318    3.0847 O   0  0  0  0  0  0  0  0  0  0  0  0
    3.0242    4.0782    3.8492 C   0  0  0  0  0  0  0  0  0  0  0  0
    3.1435    2.9057    4.6750 C   0  0  0  0  0  0  0  0  0  0  0  0
    2.2689    2.6587    5.6994 C   0  0  0  0  0  0  0  0  0  0  0  0
    4.2180    2.0383    4.4436 C   0  0  0  0  0  0  0  0  0  0  0  0
    2.4712    1.5474    6.4912 C   0  0  0  0  0  0  0  0  0  0  0  0
    4.4283    0.9187    5.2370 C   0  0  0  0  0  0  0  0  0  0  0  0
    3.5386    0.6808    6.2699 C   0  0  0  0  0  0  0  0  0  0  0  0
    3.7462   -0.4362    7.0712 O   0  0  0  0  0  0  0  0  0  0  0  0
    1.7635    6.0360    2.4660 H   0  0  0  0  0  0  0  0  0  0  0  0
    2.5113    3.1972    1.9744 H   0  0  0  0  0  0  0  0  0  0  0  0
    4.0248    4.4963    3.6078 H   0  0  0  0  0  0  0  0  0  0  0  0
    2.5441    4.9004    4.4662 H   0  0  0  0  0  0  0  0  0  0  0  0
    1.4192    3.2918    5.9284 H   0  0  0  0  0  0  0  0  0  0  0  0
    4.8937    2.2723    3.6093 H   0  0  0  0  0  0  0  0  0  0  0  0
    1.7775    1.3558    7.3027 H   0  0  0  0  0  0  0  0  0  0  0  0
    5.2592    0.2925    5.0163 H   0  0  0  0  0  0  0  0  0  0  0  0
    3.6735   -0.2522    8.0819 H   0  0  0  0  0  0  0  0  0  0  0  0
    0.1985    2.5235    3.3771 N   0  0  0  0  0  0  0  0  0  0  0  0
   -1.2392    2.3301    3.7746 C   0  0  2  0  0  0  0  0  0  0  0  0
   -1.3352    0.9462    4.3171 C   0  0  0  0  0  0  0  0  0  0  0  0
   -0.4956    0.8179    5.4522 O   0  0  0  0  0  0  0  0  0  0  0  0
   -2.0608    2.5919    2.5243 C   0  0  2  0  0  0  0  0  0  0  0  0
   -3.5216    2.4892    2.8279 C   0  0  1  0  0  0  0  0  0  0  0  0
   -4.3087    2.7476    1.5685 N   0  0  2  0  0  0  0  0  0  0  0  0
    0.8460    1.7530    3.3494 H   0  0  0  0  0  0  0  0  0  0  0  0
   -1.4745    3.1088    4.4642 H   0  0  0  0  0  0  0  0  0  0  0  0
   -1.7843    1.8922    1.7050 H   0  0  0  0  0  0  0  0  0  0  0  0
   -1.8539    3.6096    2.1534 H   0  0  0  0  0  0  0  0  0  0  0  0
   -3.8865    1.5803    3.2512 H   0  0  0  0  0  0  0  0  0  0  0  0
   -3.8707    3.3675    3.4681 H   0  0  0  0  0  0  0  0  0  0  0  0
   -3.8056    3.4946    1.0251 H   0  0  0  0  0  0  0  0  0  0  0  0
   -5.2816    3.0302    1.8568 H   0  0  0  0  0  0  0  0  0  0  0  0
   -4.3232    1.8104    1.0338 H   0  0  0  0  0  0  0  0  0  0  0  0
   -2.5579    0.3315    4.5377 N   0  0  0  0  0  0  0  0  0  0  0  0
   -2.4829   -1.0710    4.7812 C   0  0  2  0  0  0  0  0  0  0  0  0
   -3.6736   -1.8548    4.3635 C   0  0  0  0  0  0  0  0  0  0  0  0
   -3.6928   -3.0762    4.6099 O   0  0  0  0  0  0  0  0  0  0  0  0
   -2.1152   -1.5471    6.1436 C   0  0  0  0  0  0  0  0  0  0  0  0
   -0.4134   -1.6684    6.5906 S   0  0  0  0  0  0  0  0  0  0  0  0
   -3.1323    0.7328    5.3413 H   0  0  0  0  0  0  0  0  0  0  0  0
   -1.6316   -1.4024    4.1008 H   0  0  0  0  0  0  0  0  0  0  0  0
   -2.5572   -2.5969    6.3197 H   0  0  0  0  0  0  0  0  0  0  0  0
   -2.7211   -0.9712    6.9409 H   0  0  0  0  0  0  0  0  0  0  0  0
   -4.8191   -1.3572    3.6978 N   0  0  0  0  0  0  0  0  0  0  0  0
   -5.9343   -2.2238    3.2839 C   0  0  2  0  0  0  0  0  0  0  0  0
   -5.9066   -2.3908    1.7902 C   0  0  0  0  0  0  0  0  0  0  0  0
   -6.6496   -3.1807    1.1884 O   0  0  0  0  0  0  0  0  0  0  0  0
   -7.2396   -1.6415    3.6982 C   0  0  2  0  0  0  0  0  0  0  0  0
   -7.3114   -1.4651    5.2218 C   0  0  0  0  0  0  0  0  0  0  0  0
   -8.3572   -2.6103    3.3525 C   0  0  0  0  0  0  0  0  0  0  0  0
   -7.1549   -2.7503    5.9632 C   0  0  0  0  0  0  0  0  0  0  0  0
   -4.8766   -0.3813    3.5111 H   0  0  0  0  0  0  0  0  0  0  0  0
   -5.7414   -3.2426    3.6712 H   0  0  0  0  0  0  0  0  0  0  0  0
   -7.4835   -0.6861    3.2231 H   0  0  0  0  0  0  0  0  0  0  0  0
   -6.6409   -0.6628    5.5677 H   0  0  0  0  0  0  0  0  0  0  0  0
   -8.3461   -1.0810    5.4108 H   0  0  0  0  0  0  0  0  0  0  0  0
   -8.8388   -2.3139    2.4110 H   0  0  0  0  0  0  0  0  0  0  0  0
   -9.1439   -2.6188    4.1350 H   0  0  0  0  0  0  0  0  0  0  0  0
   -7.9972   -3.6579    3.2672 H   0  0  0  0  0  0  0  0  0  0  0  0
   -8.0852   -3.0899    6.4901 H   0  0  0  0  0  0  0  0  0  0  0  0
   -6.7671   -3.6015    5.3834 H   0  0  0  0  0  0  0  0  0  0  0  0
   -6.4076   -2.6214    6.8062 H   0  0  0  0  0  0  0  0  0  0  0  0
   -5.0243   -1.6459    0.9535 N   0  0  0  0  0  0  0  0  0  0  0  0
   -4.9475   -1.9628   -0.5256 C   0  0  2  0  0  0  0  0  0  0  0  0
   -3.5232   -2.3183   -0.7486 C   0  0  0  0  0  0  0  0  0  0  0  0
   -2.7246   -1.7791    0.0648 O   0  0  0  0  0  0  0  0  0  0  0  0
   -5.2296   -0.6928   -1.2745 C   0  0  0  0  0  0  0  0  0  0  0  0
   -5.2171   -0.8605   -2.7762 C   0  0  0  0  0  0  0  0  0  0  0  0
   -5.5033    0.4977   -3.4308 C   0  0  0  0  0  0  0  0  0  0  0  0
   -6.7661    0.9795   -2.9604 N   0  0  0  0  0  0  0  0  0  0  0  0
   -8.0375    0.4634   -3.2794 C   0  0  0  0  0  0  0  0  0  0  0  0
   -9.1640    1.1268   -2.6662 N   0  0  0  0  0  0  0  0  0  0  0  0
   -8.2520   -0.5258   -4.0610 N   0  0  0  0  0  0  0  0  0  0  0  0
   -4.4820   -0.9217    1.3840 H   0  0  0  0  0  0  0  0  0  0  0  0
   -5.5807   -2.7879   -0.7900 H   0  0  0  0  0  0  0  0  0  0  0  0
   -6.1832   -0.2128   -0.9341 H   0  0  0  0  0  0  0  0  0  0  0  0
   -4.4483    0.0932   -1.0630 H   0  0  0  0  0  0  0  0  0  0  0  0
   -5.9065   -1.6469   -3.0698 H   0  0  0  0  0  0  0  0  0  0  0  0
   -4.2193   -1.1478   -3.1459 H   0  0  0  0  0  0  0  0  0  0  0  0
   -5.5296    0.3625   -4.5494 H   0  0  0  0  0  0  0  0  0  0  0  0
   -4.6977    1.2139   -3.2449 H   0  0  0  0  0  0  0  0  0  0  0  0
   -6.7242    1.8223   -2.3014 H   0  0  0  0  0  0  0  0  0  0  0  0
   -9.4441    2.0940   -2.9331 H   0  0  0  0  0  0  0  0  0  0  0  0
   -9.7457    0.6764   -1.9303 H   0  0  0  0  0  0  0  0  0  0  0  0
   -9.2233   -0.8167   -4.2127 H   0  0  0  0  0  0  0  0  0  0  0  0
   -7.5190   -1.0618   -4.5767 H   0  0  0  0  0  0  0  0  0  0  0  0
   -2.9349   -3.1553   -1.7067 N   0  0  0  0  0  0  0  0  0  0  0  0
   -1.4997   -3.4309   -1.6648 C   0  0  2  0  0  0  0  0  0  0  0  0
   -0.8210   -3.5308   -2.9403 C   0  0  0  0  0  0  0  0  0  0  0  0
    0.4421   -3.7755   -2.9043 O   0  0  0  0  0  0  0  0  0  0  0  0
   -1.2882   -4.7322   -0.8408 C   0  0  0  0  0  0  0  0  0  0  0  0
   -1.8809   -4.3654    0.8429 S   0  0  0  0  0  0  0  0  0  0  0  0
   -3.5557   -3.5469   -2.4176 H   0  0  0  0  0  0  0  0  0  0  0  0
   -1.0376   -2.6640   -0.9658 H   0  0  0  0  0  0  0  0  0  0  0  0
   -1.8725   -5.5521   -1.2344 H   0  0  0  0  0  0  0  0  0  0  0  0
   -0.2150   -4.9690   -0.8803 H   0  0  0  0  0  0  0  0  0  0  0  0
   -1.3794   -3.3939   -4.2270 N   0  0  0  0  0  0  0  0  0  0  0  0
   -0.4860   -3.5344   -5.3986 C   0  0  2  0  0  0  0  0  0  0  0  0
   -0.4367   -2.2011   -6.0354 C   0  0  0  0  0  0  0  0  0  0  0  0
   -1.3170   -1.3681   -5.7380 O   0  0  0  0  0  0  0  0  0  0  0  0
   -1.0521   -4.5350   -6.3464 C   0  0  0  0  0  0  0  0  0  0  0  0
   -0.2201   -4.7253   -7.5460 C   0  0  0  0  0  0  0  0  0  0  0  0
    0.8243   -5.6538   -7.4577 C   0  0  0  0  0  0  0  0  0  0  0  0
   -0.4309   -4.0729   -8.7465 C   0  0  0  0  0  0  0  0  0  0  0  0
    1.6367   -5.9217   -8.5450 C   0  0  0  0  0  0  0  0  0  0  0  0
    0.3774   -4.3233   -9.8648 C   0  0  0  0  0  0  0  0  0  0  0  0
    1.4111   -5.2594   -9.7364 C   0  0  0  0  0  0  0  0  0  0  0  0
    2.2328   -5.5363  -10.8241 O   0  0  0  0  0  0  0  0  0  0  0  0
   -2.3936   -3.2003   -4.3254 H   0  0  0  0  0  0  0  0  0  0  0  0
    0.5172   -3.8463   -5.0511 H   0  0  0  0  0  0  0  0  0  0  0  0
   -1.2171   -5.5381   -5.8939 H   0  0  0  0  0  0  0  0  0  0  0  0
   -2.0818   -4.2293   -6.6913 H   0  0  0  0  0  0  0  0  0  0  0  0
    0.9946   -6.1728   -6.5048 H   0  0  0  0  0  0  0  0  0  0  0  0
   -1.2526   -3.3597   -8.7822 H   0  0  0  0  0  0  0  0  0  0  0  0
    2.4337   -6.6522   -8.4247 H   0  0  0  0  0  0  0  0  0  0  0  0
    0.1998   -3.8033  -10.8063 H   0  0  0  0  0  0  0  0  0  0  0  0
    3.2244   -5.2783  -10.8107 H   0  0  0  0  0  0  0  0  0  0  0  0
    0.5595   -1.7932   -6.9653 N   0  0  0  0  0  0  0  0  0  0  0  0
    0.4322   -0.4227   -7.4754 C   0  0  2  0  0  0  0  0  0  0  0  0
    0.9243   -0.2410   -8.8322 C   0  0  0  0  0  0  0  0  0  0  0  0
    0.8339    0.8965   -9.3899 O   0  0  0  0  0  0  0  0  0  0  0  0
    1.3153    0.4933   -6.5883 C   0  0  0  0  0  0  0  0  0  0  0  0
    1.3213   -2.4222   -7.2432 H   0  0  0  0  0  0  0  0  0  0  0  0
   -0.5963   -0.0348   -7.3420 H   0  0  0  0  0  0  0  0  0  0  0  0
    1.1991    0.2321   -5.5262 H   0  0  0  0  0  0  0  0  0  0  0  0
    2.3760    0.3912   -6.9203 H   0  0  0  0  0  0  0  0  0  0  0  0
    0.9448    1.5182   -6.7503 H   0  0  0  0  0  0  0  0  0  0  0  0
    1.5194   -1.2657   -9.6128 N   0  0  0  0  0  0  0  0  0  0  0  0
    1.2659   -1.4184  -10.6283 H   0  0  0  0  0  0  0  0  0  0  0  0
    2.2337   -1.8797   -9.1494 H   0  0  0  0  0  0  0  0  0  0  0  0
   -1.0634   -3.7969    3.9779 H   0  0  0  0  0  0  0  0  0  0  0  0
    1.8970   -3.9210    4.7124 H   0  0  0  0  0  0  0  0  0  0  0  0
    0.7542   -1.2257    4.0211 H   0  0  0  0  0  0  0  0  0  0  0  0
    3.2191   -2.2380    2.7616 H   0  0  0  0  0  0  0  0  0  0  0  0
    1.6546   -3.3205    0.8809 H   0  0  0  0  0  0  0  0  0  0  0  0
    0.2731   -5.0661    1.9555 H   0  0  0  0  0  0  0  0  0  0  0  0
    0.7686   -0.7311    1.9891 H   0  0  0  0  0  0  0  0  0  0  0  0
    2.3918   -0.0315    3.4482 H   0  0  0  0  0  0  0  0  0  0  0  0
    3.4754    3.0444   -1.8677 H   0  0  0  0  0  0  0  0  0  0  0  0
    6.1372    3.7232   -1.0979 H   0  0  0  0  0  0  0  0  0  0  0  0
    4.2532    5.5183    1.9125 H   0  0  0  0  0  0  0  0  0  0  0  0
    4.2127    7.3109    0.8399 H   0  0  0  0  0  0  0  0  0  0  0  0
   -0.8026    0.2977    3.5200 H   0  0  0  0  0  0  0  0  0  0  0  0
   -0.7085    1.6248    5.9885 H   0  0  0  0  0  0  0  0  0  0  0  0
  1  2  1  0
  1 11  1  6
  1 12  1  0
  1 13  1  0
  2  3  1  0
  2  7  1  0
  3  4  1  0
  3 10  1  0
  4  5  1  0
  4 14  1  0
  5  6  1  0
  5  9  1  0
  6  7  1  0
  6 15  1  0
  7  8  1  0
  8 16  1  6
  8 17  1  0
  8171  1  0
  9 19  1  0
  9 21  1  0
 10 18  1  1
 10 20  1  0
 10118  1  0
 23 38  1  0
 38 39  1  0
 38 46  1  0
 39 40  1  0
 39 44  1  0
 39 47  1  1
 40 41  1  0
 40 48  1  6
 40 49  1  0
 41 42  1  0
 41 50  1  6
 41 51  1  0
 42 43  1  0
 42 52  1  6
 42 53  1  0
 43 54  1  1
 43 55  1  0
 44 45  1  0
 44 57  1  0
 57 58  1  0
 57 65  1  0
 58 59  1  0
 58 61  1  0
 58 66  1  6
 59 60  1  0
 59 76  1  0
 61 62  1  0
 61 67  1  1
 61 68  1  0
 62 63  1  0
 62 69  1  1
 62 70  1  0
 63 64  1  0
 63 71  1  6
 63 72  1  0
 64 73  1  6
 64 74  1  0
 64 75  1  0
 78 97  1  0
 97 98  1  0
 97104  1  0
 98 99  1  0
 98101  1  0
 98105  1  1
 99100  1  0
 99113  1  0
101102  1  0
101106  1  6
101107  1  0
102103  1  0
102108  1  1
102109  1  0
103110  1  6
103111  1  0
199207  1  0
207208  1  0
207209  1  0
 22 21  1  0
 23 22  1  0
 24 23  2  0
 25 22  1  0
 26 25  1  0
 27 26  1  0
 28 26  2  0
 29 27  2  0
 30 28  1  0
 30 29  1  0
 31 21  1  0
 22 32  1  6
 33 25  1  0
 34 25  1  0
 35 28  1  0
 36 29  1  0
 37 30  1  0
 56 43  1  0
 77 76  1  0
 78 77  1  0
 79 78  2  0
 80 77  1  0
 81 80  1  0
 82 81  2  0
 83 81  1  0
 84 82  1  0
 85 83  2  0
 86 85  1  0
 86 84  2  0
 87 86  1  0
 88 76  1  0
 77 89  1  6
 90 80  1  0
 91 80  1  0
 92 82  1  0
 93 83  1  0
 94 84  1  0
 95 85  1  0
 96 87  1  0
112103  1  0
114113  1  0
115114  1  0
116115  2  0
117114  1  0
118117  1  0
119113  1  0
114120  1  6
121117  1  0
122117  1  0
123115  1  0
124123  1  0
125124  1  0
126125  2  0
127124  1  0
128127  1  0
129127  1  0
130128  1  0
131123  1  0
124132  1  1
127133  1  6
134128  1  0
135128  1  0
136129  1  0
137129  1  0
138129  1  0
139130  1  0
140130  1  0
141130  1  0
142125  1  0
143142  1  0
144143  1  0
145144  2  0
146143  1  0
147146  1  0
148147  1  0
149148  1  0
150149  1  0
151150  1  0
152150  2  0
153142  1  0
143154  1  6
155146  1  0
156146  1  0
157147  1  0
158147  1  0
159148  1  0
160148  1  0
161149  1  0
162151  1  0
163151  1  0
164152  1  0
165152  1  0
166144  1  0
167166  1  0
168167  1  0
169168  2  0
170167  1  0
171170  1  0
172166  1  0
167173  1  1
174170  1  0
175170  1  0
176168  1  0
177176  1  0
178177  1  0
179178  2  0
180177  1  0
181180  1  0
182181  2  0
183181  1  0
184182  1  0
185183  2  0
186185  1  0
186184  2  0
187186  1  0
188176  1  0
177189  1  1
190180  1  0
191180  1  0
192182  1  0
193183  1  0
194184  1  0
195185  1  0
196187  1  0
197178  1  0
198197  1  0
199198  1  0
200199  2  0
201198  1  0
202197  1  0
198203  1  6
204201  1  0
205201  1  0
206201  1  0
  2210  1  6
  3211  1  1
  4212  1  0
  5213  1  0
  6214  1  0
  7215  1  0
  9216  1  0
 19217  1  0
 44218  1  0
 45219  1  0
 59220  1  0
 60221  1  0
 99222  1  0
100223  1  0
M  CHG  3  43   1 103   1 152   1
M  END
$$$$
BP70
     RDKit          3D

223228  0  0  0  0  0  0  0  0999 V2000
   -0.4662    2.5457   -5.6731 C   0  0  2  0  0  0  0  0  0  0  0  0
    0.7332    2.5718   -4.7810 C   0  0  1  0  0  0  0  0  0  0  0  0
    0.4709    3.3614   -3.4945 C   0  0  1  0  0  0  0  0  0  0  0  0
    1.8355    3.8034   -3.0014 C   0  0  0  0  0  0  0  0  0  0  0  0
    2.6937    2.5939   -2.8464 C   0  0  0  0  0  0  0  0  0  0  0  0
    1.9347    1.3069   -3.0474 C   0  0  0  0  0  0  0  0  0  0  0  0
    1.1849    1.1940   -4.3620 C   0  0  0  0  0  0  0  0  0  0  0  0
    2.0134    0.4425   -5.3376 C   0  0  2  0  0  0  0  0  0  0  0  0
    3.2444    2.4249   -1.4046 C   0  0  0  0  0  0  0  0  0  0  0  0
   -0.4624    4.5161   -3.7218 C   0  0  1  0  0  0  0  0  0  0  0  0
   -1.4396    2.5437   -5.1430 H   0  0  0  0  0  0  0  0  0  0  0  0
   -0.4293    1.6028   -6.2541 H   0  0  0  0  0  0  0  0  0  0  0  0
   -0.3761    3.3597   -6.4033 H   0  0  0  0  0  0  0  0  0  0  0  0
    2.2645    4.5027   -3.7798 H   0  0  0  0  0  0  0  0  0  0  0  0
    2.6779    0.4859   -3.0214 H   0  0  0  0  0  0  0  0  0  0  0  0
    3.1207    0.4848   -5.0517 H   0  0  0  0  0  0  0  0  0  0  0  0
    1.9498    1.0107   -6.3290 H   0  0  0  0  0  0  0  0  0  0  0  0
    0.1052    5.4268   -3.3627 H   0  0  0  0  0  0  0  0  0  0  0  0
    3.3552    3.7504   -0.9668 O   0  0  0  0  0  0  0  0  0  0  0  0
   -0.4651    4.6773   -4.8465 H   0  0  0  0  0  0  0  0  0  0  0  0
    4.4793    1.7484   -1.5001 N   0  0  0  0  0  0  0  0  0  0  0  0
    5.1622    1.4252   -0.2427 C   0  0  2  0  0  0  0  0  0  0  0  0
    4.4027    0.2799    0.3799 C   0  0  0  0  0  0  0  0  0  0  0  0
    3.7952   -0.4605   -0.4229 O   0  0  0  0  0  0  0  0  0  0  0  0
    5.4143    2.5684    0.6469 C   0  0  0  0  0  0  0  0  0  0  0  0
    6.2629    2.2460    1.8169 C   0  0  0  0  0  0  0  0  0  0  0  0
    6.5226    3.1537    2.7789 N   0  0  0  0  0  0  0  0  0  0  0  0
    7.0027    1.1299    2.1354 C   0  0  0  0  0  0  0  0  0  0  0  0
    7.3841    2.5940    3.6359 C   0  0  0  0  0  0  0  0  0  0  0  0
    7.7050    1.3409    3.2711 N   0  0  0  0  0  0  0  0  0  0  0  0
    5.1135    2.2572   -2.1509 H   0  0  0  0  0  0  0  0  0  0  0  0
    6.1405    1.0165   -0.5837 H   0  0  0  0  0  0  0  0  0  0  0  0
    6.0366    3.3282    0.0741 H   0  0  0  0  0  0  0  0  0  0  0  0
    4.4747    3.0952    0.9719 H   0  0  0  0  0  0  0  0  0  0  0  0
    7.0229    0.2263    1.5664 H   0  0  0  0  0  0  0  0  0  0  0  0
    7.8080    3.0479    4.5342 H   0  0  0  0  0  0  0  0  0  0  0  0
    8.3538    0.6546    3.7384 H   0  0  0  0  0  0  0  0  0  0  0  0
    4.2746   -0.0496    1.7255 N   0  0  0  0  0  0  0  0  0  0  0  0
    3.7211   -1.3281    2.2379 C   0  0  1  0  0  0  0  0  0  0  0  0
    5.0440   -2.1163    2.4170 C   0  0  2  0  0  0  0  0  0  0  0  0
    4.9302   -3.4895    2.9156 C   0  0  2  0  0  0  0  0  0  0  0  0
    6.3808   -4.0417    2.9777 C   0  0  1  0  0  0  0  0  0  0  0  0
    6.9184   -3.9762    1.6040 N   0  0  2  0  0  0  0  0  0  0  0  0
    3.0336   -1.2112    3.5634 C   0  0  0  0  0  0  0  0  0  0  0  0
    3.8266   -0.6881    4.5458 O   0  0  0  0  0  0  0  0  0  0  0  0
    4.5124    0.6255    2.4364 H   0  0  0  0  0  0  0  0  0  0  0  0
    3.1674   -1.8956    1.5097 H   0  0  0  0  0  0  0  0  0  0  0  0
    5.7515   -1.4727    2.9986 H   0  0  0  0  0  0  0  0  0  0  0  0
    5.5163   -2.1642    1.3950 H   0  0  0  0  0  0  0  0  0  0  0  0
    4.3808   -4.1181    2.2059 H   0  0  0  0  0  0  0  0  0  0  0  0
    4.5048   -3.5183    3.9352 H   0  0  0  0  0  0  0  0  0  0  0  0
    6.9881   -3.3978    3.6454 H   0  0  0  0  0  0  0  0  0  0  0  0
    6.3858   -5.0536    3.3876 H   0  0  0  0  0  0  0  0  0  0  0  0
    7.6760   -4.7177    1.4734 H   0  0  0  0  0  0  0  0  0  0  0  0
    7.3722   -3.0058    1.4658 H   0  0  0  0  0  0  0  0  0  0  0  0
    6.1429   -4.0997    0.8900 H   0  0  0  0  0  0  0  0  0  0  0  0
    1.6820   -0.9492    3.4743 N   0  0  0  0  0  0  0  0  0  0  0  0
    0.8506   -0.5691    4.5621 C   0  0  2  0  0  0  0  0  0  0  0  0
   -0.5613   -0.5642    4.0642 C   0  0  0  0  0  0  0  0  0  0  0  0
   -0.9570   -1.8838    3.8753 O   0  0  0  0  0  0  0  0  0  0  0  0
    1.3618    0.6045    5.2691 C   0  0  2  0  0  0  0  0  0  0  0  0
    0.5426    1.1162    6.4291 C   0  0  1  0  0  0  0  0  0  0  0  0
    0.3872    0.0323    7.4734 C   0  0  1  0  0  0  0  0  0  0  0  0
   -0.4168    0.4734    8.6585 C   0  0  2  0  0  0  0  0  0  0  0  0
    1.2919   -0.7267    2.5397 H   0  0  0  0  0  0  0  0  0  0  0  0
    0.9612   -1.4445    5.3130 H   0  0  0  0  0  0  0  0  0  0  0  0
    1.7473    1.3530    4.5905 H   0  0  0  0  0  0  0  0  0  0  0  0
    2.3116    0.2633    5.8083 H   0  0  0  0  0  0  0  0  0  0  0  0
    1.2134    1.8831    6.9308 H   0  0  0  0  0  0  0  0  0  0  0  0
   -0.4208    1.5314    6.2081 H   0  0  0  0  0  0  0  0  0  0  0  0
   -0.0138   -0.9104    7.0207 H   0  0  0  0  0  0  0  0  0  0  0  0
    1.4303   -0.2187    7.8113 H   0  0  0  0  0  0  0  0  0  0  0  0
    0.0877    0.1628    9.5801 H   0  0  0  0  0  0  0  0  0  0  0  0
   -1.4608    0.0612    8.5966 H   0  0  0  0  0  0  0  0  0  0  0  0
   -0.4973    1.5830    8.5955 H   0  0  0  0  0  0  0  0  0  0  0  0
   -1.5298    0.2992    4.5606 N   0  0  0  0  0  0  0  0  0  0  0  0
   -2.6523    0.4277    3.5815 C   0  0  2  0  0  0  0  0  0  0  0  0
   -3.3826    1.7424    3.7666 C   0  0  0  0  0  0  0  0  0  0  0  0
   -3.7265    2.1754    4.8658 O   0  0  0  0  0  0  0  0  0  0  0  0
   -3.6921   -0.6241    3.9867 C   0  0  0  0  0  0  0  0  0  0  0  0
   -4.8347   -0.5906    3.0831 C   0  0  0  0  0  0  0  0  0  0  0  0
   -4.8179   -1.4736    1.9965 C   0  0  0  0  0  0  0  0  0  0  0  0
   -5.9425    0.2179    3.2188 C   0  0  0  0  0  0  0  0  0  0  0  0
   -5.8694   -1.5265    1.1094 C   0  0  0  0  0  0  0  0  0  0  0  0
   -7.0132    0.1975    2.3525 C   0  0  0  0  0  0  0  0  0  0  0  0
   -6.9523   -0.6909    1.2987 C   0  0  0  0  0  0  0  0  0  0  0  0
   -8.0257   -0.7293    0.4121 O   0  0  0  0  0  0  0  0  0  0  0  0
   -2.0076   -0.0556    5.4165 H   0  0  0  0  0  0  0  0  0  0  0  0
   -2.3091    0.2143    2.6113 H   0  0  0  0  0  0  0  0  0  0  0  0
   -3.2685   -1.6475    3.9902 H   0  0  0  0  0  0  0  0  0  0  0  0
   -4.0292   -0.4117    5.0306 H   0  0  0  0  0  0  0  0  0  0  0  0
   -3.9881   -2.1434    1.8184 H   0  0  0  0  0  0  0  0  0  0  0  0
   -5.9960    0.9056    4.0425 H   0  0  0  0  0  0  0  0  0  0  0  0
   -5.8349   -2.2072    0.2892 H   0  0  0  0  0  0  0  0  0  0  0  0
   -7.8864    0.8393    2.4615 H   0  0  0  0  0  0  0  0  0  0  0  0
   -8.1681   -1.4087   -0.3057 H   0  0  0  0  0  0  0  0  0  0  0  0
   -3.6972    2.5693    2.6420 N   0  0  0  0  0  0  0  0  0  0  0  0
   -4.4233    3.7953    2.6022 C   0  0  2  0  0  0  0  0  0  0  0  0
   -5.0411    4.0139    1.1797 C   0  0  0  0  0  0  0  0  0  0  0  0
   -5.7704    5.2506    1.2545 O   0  0  0  0  0  0  0  0  0  0  0  0
   -3.6310    5.0349    2.9644 C   0  0  2  0  0  0  0  0  0  0  0  0
   -3.0479    5.0532    4.3412 C   0  0  1  0  0  0  0  0  0  0  0  0
   -2.3439    6.3838    4.4839 N   0  0  2  0  0  0  0  0  0  0  0  0
   -3.3309    2.1995    1.7486 H   0  0  0  0  0  0  0  0  0  0  0  0
   -5.2556    3.8081    3.3056 H   0  0  0  0  0  0  0  0  0  0  0  0
   -4.1607    5.9611    2.7442 H   0  0  0  0  0  0  0  0  0  0  0  0
   -2.7450    5.0406    2.2611 H   0  0  0  0  0  0  0  0  0  0  0  0
   -3.8369    5.0249    5.0976 H   0  0  0  0  0  0  0  0  0  0  0  0
   -2.2358    4.3125    4.5158 H   0  0  0  0  0  0  0  0  0  0  0  0
   -1.3736    6.2836    4.0490 H   0  0  0  0  0  0  0  0  0  0  0  0
   -2.2848    6.6004    5.5229 H   0  0  0  0  0  0  0  0  0  0  0  0
   -2.9173    7.0991    3.9569 H   0  0  0  0  0  0  0  0  0  0  0  0
   -4.0939    4.1912    0.2236 N   0  0  0  0  0  0  0  0  0  0  0  0
   -4.0025    4.2434   -1.1262 C   0  0  2  0  0  0  0  0  0  0  0  0
   -4.3385    3.0363   -1.9355 C   0  0  0  0  0  0  0  0  0  0  0  0
   -3.9398    3.0104   -3.1070 O   0  0  0  0  0  0  0  0  0  0  0  0
   -2.5101    4.5462   -1.4579 C   0  0  0  0  0  0  0  0  0  0  0  0
   -2.0963    4.4584   -3.1485 S   0  0  0  0  0  0  0  0  0  0  0  0
   -3.1408    3.8957    0.6388 H   0  0  0  0  0  0  0  0  0  0  0  0
   -4.5571    5.0757   -1.5863 H   0  0  0  0  0  0  0  0  0  0  0  0
   -1.8936    3.8969   -0.8311 H   0  0  0  0  0  0  0  0  0  0  0  0
   -2.3345    5.5930   -1.0679 H   0  0  0  0  0  0  0  0  0  0  0  0
   -5.0920    1.9316   -1.4747 N   0  0  0  0  0  0  0  0  0  0  0  0
   -4.8535    0.5531   -2.0960 C   0  0  2  0  0  0  0  0  0  0  0  0
   -3.4433    0.3331   -1.8432 C   0  0  0  0  0  0  0  0  0  0  0  0
   -2.8497    1.5064   -1.6434 O   0  0  0  0  0  0  0  0  0  0  0  0
   -5.6375    0.2099   -3.2187 C   0  0  2  0  0  0  0  0  0  0  0  0
   -5.4530   -1.1332   -3.9073 C   0  0  0  0  0  0  0  0  0  0  0  0
   -5.7463    1.2091   -4.3865 C   0  0  0  0  0  0  0  0  0  0  0  0
   -4.0764   -1.3430   -4.4777 C   0  0  0  0  0  0  0  0  0  0  0  0
   -5.7760    2.0835   -0.7787 H   0  0  0  0  0  0  0  0  0  0  0  0
   -5.2865   -0.0462   -1.1943 H   0  0  0  0  0  0  0  0  0  0  0  0
   -6.7694    0.1471   -2.9478 H   0  0  0  0  0  0  0  0  0  0  0  0
   -5.7538   -1.9713   -3.2275 H   0  0  0  0  0  0  0  0  0  0  0  0
   -6.1596   -1.2230   -4.7573 H   0  0  0  0  0  0  0  0  0  0  0  0
   -6.2724    2.1249   -4.1159 H   0  0  0  0  0  0  0  0  0  0  0  0
   -4.8400    1.2896   -4.9757 H   0  0  0  0  0  0  0  0  0  0  0  0
   -6.4774    0.6870   -5.0927 H   0  0  0  0  0  0  0  0  0  0  0  0
   -3.6299   -2.2180   -3.9648 H   0  0  0  0  0  0  0  0  0  0  0  0
   -3.3894   -0.4910   -4.3360 H   0  0  0  0  0  0  0  0  0  0  0  0
   -4.1331   -1.6492   -5.5508 H   0  0  0  0  0  0  0  0  0  0  0  0
   -2.5075   -0.6726   -1.7276 N   0  0  0  0  0  0  0  0  0  0  0  0
   -1.1298   -0.1593   -1.3386 C   0  0  2  0  0  0  0  0  0  0  0  0
   -0.1184   -1.0665   -1.8243 C   0  0  0  0  0  0  0  0  0  0  0  0
    0.9928   -1.3263   -1.4050 O   0  0  0  0  0  0  0  0  0  0  0  0
   -1.1660    0.4749   -0.0290 C   0  0  0  0  0  0  0  0  0  0  0  0
    0.0909    1.1569    0.3789 C   0  0  0  0  0  0  0  0  0  0  0  0
    0.0641    2.0630    1.5572 C   0  0  0  0  0  0  0  0  0  0  0  0
    1.3904    2.5704    1.8067 N   0  0  0  0  0  0  0  0  0  0  0  0
    1.5636    3.5712    2.8336 C   0  0  0  0  0  0  0  0  0  0  0  0
    2.8395    4.1172    3.1365 N   0  0  0  0  0  0  0  0  0  0  0  0
    0.5676    4.0155    3.5245 N   0  0  0  0  0  0  0  0  0  0  0  0
   -2.7129   -1.6310   -1.8727 H   0  0  0  0  0  0  0  0  0  0  0  0
   -1.0594    0.7260   -2.0956 H   0  0  0  0  0  0  0  0  0  0  0  0
   -2.0745    1.0116    0.1875 H   0  0  0  0  0  0  0  0  0  0  0  0
   -1.1589   -0.4761    0.6800 H   0  0  0  0  0  0  0  0  0  0  0  0
    0.9244    0.4795    0.2888 H   0  0  0  0  0  0  0  0  0  0  0  0
    0.2050    1.9288   -0.4629 H   0  0  0  0  0  0  0  0  0  0  0  0
   -0.3709    1.7974    2.4805 H   0  0  0  0  0  0  0  0  0  0  0  0
   -0.5142    2.9796    1.2301 H   0  0  0  0  0  0  0  0  0  0  0  0
    2.2598    2.2816    1.3363 H   0  0  0  0  0  0  0  0  0  0  0  0
    3.2314    3.9981    4.0888 H   0  0  0  0  0  0  0  0  0  0  0  0
    3.4295    4.6455    2.4576 H   0  0  0  0  0  0  0  0  0  0  0  0
    0.6386    4.7300    4.2707 H   0  0  0  0  0  0  0  0  0  0  0  0
   -0.3615    3.6226    3.3059 H   0  0  0  0  0  0  0  0  0  0  0  0
   -0.4715   -1.7981   -3.0411 N   0  0  0  0  0  0  0  0  0  0  0  0
    0.3024   -2.7435   -3.7251 C   0  0  2  0  0  0  0  0  0  0  0  0
    0.2605   -4.0495   -2.9659 C   0  0  0  0  0  0  0  0  0  0  0  0
   -0.5649   -4.0466   -1.9877 O   0  0  0  0  0  0  0  0  0  0  0  0
    1.5753   -2.4617   -4.4074 C   0  0  0  0  0  0  0  0  0  0  0  0
    1.6306   -1.2376   -5.6756 S   0  0  0  0  0  0  0  0  0  0  0  0
   -1.4091   -1.5357   -3.3868 H   0  0  0  0  0  0  0  0  0  0  0  0
   -0.3937   -2.9777   -4.6841 H   0  0  0  0  0  0  0  0  0  0  0  0
    2.3933   -2.3411   -3.6438 H   0  0  0  0  0  0  0  0  0  0  0  0
    1.8802   -3.4447   -4.9047 H   0  0  0  0  0  0  0  0  0  0  0  0
    1.0362   -5.1854   -3.2708 N   0  0  0  0  0  0  0  0  0  0  0  0
    0.7939   -6.3517   -2.4007 C   0  0  2  0  0  0  0  0  0  0  0  0
    1.7931   -6.3804   -1.2722 C   0  0  0  0  0  0  0  0  0  0  0  0
    2.7410   -5.5652   -1.1948 O   0  0  0  0  0  0  0  0  0  0  0  0
    0.8212   -7.5843   -3.2233 C   0  0  0  0  0  0  0  0  0  0  0  0
   -0.2202   -7.5223   -4.2670 C   0  0  0  0  0  0  0  0  0  0  0  0
   -1.5182   -7.9671   -4.0788 C   0  0  0  0  0  0  0  0  0  0  0  0
    0.0548   -7.0123   -5.5376 C   0  0  0  0  0  0  0  0  0  0  0  0
   -2.4797   -7.9161   -5.0651 C   0  0  0  0  0  0  0  0  0  0  0  0
   -0.9063   -6.9588   -6.5305 C   0  0  0  0  0  0  0  0  0  0  0  0
   -2.1827   -7.4110   -6.3013 C   0  0  0  0  0  0  0  0  0  0  0  0
   -3.1443   -7.3566   -7.3006 O   0  0  0  0  0  0  0  0  0  0  0  0
    1.7214   -5.2029   -4.0439 H   0  0  0  0  0  0  0  0  0  0  0  0
   -0.2073   -6.2363   -1.9165 H   0  0  0  0  0  0  0  0  0  0  0  0
    1.8239   -7.7309   -3.6810 H   0  0  0  0  0  0  0  0  0  0  0  0
    0.6498   -8.4516   -2.5287 H   0  0  0  0  0  0  0  0  0  0  0  0
   -1.7670   -8.3715   -3.1079 H   0  0  0  0  0  0  0  0  0  0  0  0
    1.0321   -6.6379   -5.8053 H   0  0  0  0  0  0  0  0  0  0  0  0
   -3.4907   -8.2724   -4.8961 H   0  0  0  0  0  0  0  0  0  0  0  0
   -0.6720   -6.5582   -7.5169 H   0  0  0  0  0  0  0  0  0  0  0  0
   -2.9530   -6.7890   -8.1210 H   0  0  0  0  0  0  0  0  0  0  0  0
    1.5607   -7.4102   -0.3029 N   0  0  0  0  0  0  0  0  0  0  0  0
    2.4120   -7.5898    0.8613 C   0  0  2  0  0  0  0  0  0  0  0  0
    2.8552   -8.9904    1.0311 C   0  0  0  0  0  0  0  0  0  0  0  0
    3.6113   -9.3037    2.0013 O   0  0  0  0  0  0  0  0  0  0  0  0
    1.6775   -7.1677    2.1279 C   0  0  0  0  0  0  0  0  0  0  0  0
    0.7535   -8.0901   -0.3960 H   0  0  0  0  0  0  0  0  0  0  0  0
    3.2896   -6.9092    0.7779 H   0  0  0  0  0  0  0  0  0  0  0  0
    1.9899   -7.8529    2.9367 H   0  0  0  0  0  0  0  0  0  0  0  0
    2.0026   -6.1411    2.4710 H   0  0  0  0  0  0  0  0  0  0  0  0
    0.5830   -7.2225    2.0334 H   0  0  0  0  0  0  0  0  0  0  0  0
    2.4879  -10.0520    0.1620 N   0  0  0  0  0  0  0  0  0  0  0  0
    3.0368  -10.3410   -0.6646 H   0  0  0  0  0  0  0  0  0  0  0  0
    1.5895  -10.5552    0.4130 H   0  0  0  0  0  0  0  0  0  0  0  0
    1.5744    3.0337   -5.3569 H   0  0  0  0  0  0  0  0  0  0  0  0
    0.0683    2.7160   -2.7391 H   0  0  0  0  0  0  0  0  0  0  0  0
    1.7002    4.3118   -2.0468 H   0  0  0  0  0  0  0  0  0  0  0  0
    3.5576    2.6060   -3.5299 H   0  0  0  0  0  0  0  0  0  0  0  0
    1.2909    1.2127   -2.1821 H   0  0  0  0  0  0  0  0  0  0  0  0
    0.2727    0.6118   -4.1622 H   0  0  0  0  0  0  0  0  0  0  0  0
    2.4883    1.8675   -0.8490 H   0  0  0  0  0  0  0  0  0  0  0  0
    2.6543    3.9557   -0.3156 H   0  0  0  0  0  0  0  0  0  0  0  0
    3.0209   -2.3513    3.8911 H   0  0  0  0  0  0  0  0  0  0  0  0
    4.0651   -1.2818    5.2969 H   0  0  0  0  0  0  0  0  0  0  0  0
   -0.4857   -0.2713    2.9236 H   0  0  0  0  0  0  0  0  0  0  0  0
   -0.9266   -2.4444    4.6751 H   0  0  0  0  0  0  0  0  0  0  0  0
   -5.8172    3.2676    1.1755 H   0  0  0  0  0  0  0  0  0  0  0  0
   -6.0151    5.5184    0.3338 H   0  0  0  0  0  0  0  0  0  0  0  0
  1  2  1  0
  1 11  1  1
  1 12  1  0
  1 13  1  0
  2  3  1  0
  2  7  1  0
  3  4  1  0
  3 10  1  0
  4  5  1  0
  4 14  1  0
  5  6  1  0
  5  9  1  0
  6  7  1  0
  6 15  1  0
  7  8  1  0
  8 16  1  1
  8 17  1  0
  8171  1  0
  9 19  1  0
  9 21  1  0
 10 18  1  1
 10 20  1  0
 10118  1  0
 23 38  1  0
 38 39  1  0
 38 46  1  0
 39 40  1  0
 39 44  1  0
 39 47  1  6
 40 41  1  0
 40 48  1  1
 40 49  1  0
 41 42  1  0
 41 50  1  6
 41 51  1  0
 42 43  1  0
 42 52  1  1
 42 53  1  0
 43 54  1  1
 43 55  1  0
 44 45  1  0
 44 57  1  0
 57 58  1  0
 57 65  1  0
 58 59  1  0
 58 61  1  0
 58 66  1  1
 59 60  1  0
 59 76  1  0
 61 62  1  0
 61 67  1  6
 61 68  1  0
 62 63  1  0
 62 69  1  1
 62 70  1  0
 63 64  1  0
 63 71  1  6
 63 72  1  0
 64 73  1  1
 64 74  1  0
 64 75  1  0
 78 97  1  0
 97 98  1  0
 97104  1  0
 98 99  1  0
 98101  1  0
 98105  1  1
 99100  1  0
 99113  1  0
101102  1  0
101106  1  6
101107  1  0
102103  1  0
102108  1  1
102109  1  0
103110  1  6
103111  1  0
199207  1  0
207208  1  0
207209  1  0
 22 21  1  0
 23 22  1  0
 24 23  2  0
 25 22  1  0
 26 25  1  0
 27 26  1  0
 28 26  2  0
 29 27  2  0
 30 28  1  0
 30 29  1  0
 31 21  1  0
 22 32  1  6
 33 25  1  0
 34 25  1  0
 35 28  1  0
 36 29  1  0
 37 30  1  0
 56 43  1  0
 77 76  1  0
 78 77  1  0
 79 78  2  0
 80 77  1  0
 81 80  1  0
 82 81  2  0
 83 81  1  0
 84 82  1  0
 85 83  2  0
 86 85  1  0
 86 84  2  0
 87 86  1  0
 88 76  1  0
 77 89  1  6
 90 80  1  0
 91 80  1  0
 92 82  1  0
 93 83  1  0
 94 84  1  0
 95 85  1  0
 96 87  1  0
112103  1  0
114113  1  0
115114  1  0
116115  2  0
117114  1  0
118117  1  0
119113  1  0
114120  1  6
121117  1  0
122117  1  0
123115  1  0
124123  1  0
125124  1  0
126125  2  0
127124  1  0
128127  1  0
129127  1  0
130128  1  0
131123  1  0
124132  1  1
127133  1  1
134128  1  0
135128  1  0
136129  1  0
137129  1  0
138129  1  0
139130  1  0
140130  1  0
141130  1  0
142125  1  0
143142  1  0
144143  1  0
145144  2  0
146143  1  0
147146  1  0
148147  1  0
149148  1  0
150149  1  0
151150  1  0
152150  2  0
153142  1  0
143154  1  6
155146  1  0
156146  1  0
157147  1  0
158147  1  0
159148  1  0
160148  1  0
161149  1  0
162151  1  0
163151  1  0
164152  1  0
165152  1  0
166144  1  0
167166  1  0
168167  1  0
169168  2  0
170167  1  0
171170  1  0
172166  1  0
167173  1  6
174170  1  0
175170  1  0
176168  1  0
177176  1  0
178177  1  0
179178  2  0
180177  1  0
181180  1  0
182181  2  0
183181  1  0
184182  1  0
185183  2  0
186185  1  0
186184  2  0
187186  1  0
188176  1  0
177189  1  1
190180  1  0
191180  1  0
192182  1  0
193183  1  0
194184  1  0
195185  1  0
196187  1  0
197178  1  0
198197  1  0
199198  1  0
200199  2  0
201198  1  0
202197  1  0
198203  1  6
204201  1  0
205201  1  0
206201  1  0
  2210  1  6
  3211  1  1
  4212  1  0
  5213  1  0
  6214  1  0
  7215  1  0
  9216  1  0
 19217  1  0
 44218  1  0
 45219  1  0
 59220  1  0
 60221  1  0
 99222  1  0
100223  1  0
M  CHG  3  43   1 103   1 152   1
M  END
$$$$
BP70
     RDKit          3D

223228  0  0  0  0  0  0  0  0999 V2000
    1.3814   -5.6195    0.5505 C   0  0  2  0  0  0  0  0  0  0  0  0
    1.0548   -4.4602    1.4966 C   0  0  1  0  0  0  0  0  0  0  0  0
   -0.1361   -4.8613    2.3692 C   0  0  1  0  0  0  0  0  0  0  0  0
    0.1544   -4.6426    3.8428 C   0  0  0  0  0  0  0  0  0  0  0  0
    0.8763   -3.3947    4.1726 C   0  0  0  0  0  0  0  0  0  0  0  0
    1.9949   -3.0470    3.2580 C   0  0  0  0  0  0  0  0  0  0  0  0
    2.2654   -4.1786    2.2822 C   0  0  0  0  0  0  0  0  0  0  0  0
    3.4997   -3.8299    1.5553 C   0  0  2  0  0  0  0  0  0  0  0  0
    0.0209   -2.1610    4.3031 C   0  0  0  0  0  0  0  0  0  0  0  0
   -1.4250   -4.1934    1.9742 C   0  0  1  0  0  0  0  0  0  0  0  0
    2.3510   -6.1026    0.8229 H   0  0  0  0  0  0  0  0  0  0  0  0
    1.3978   -5.2791   -0.4708 H   0  0  0  0  0  0  0  0  0  0  0  0
    0.6153   -6.4408    0.7026 H   0  0  0  0  0  0  0  0  0  0  0  0
    0.5892   -5.5557    4.2861 H   0  0  0  0  0  0  0  0  0  0  0  0
    2.9629   -2.9394    3.8389 H   0  0  0  0  0  0  0  0  0  0  0  0
    3.8422   -4.7380    0.9482 H   0  0  0  0  0  0  0  0  0  0  0  0
    4.3870   -3.7288    2.2789 H   0  0  0  0  0  0  0  0  0  0  0  0
   -2.0074   -3.7860    2.8362 H   0  0  0  0  0  0  0  0  0  0  0  0
   -0.0237   -1.4896    3.0481 O   0  0  0  0  0  0  0  0  0  0  0  0
   -1.1776   -3.2799    1.3422 H   0  0  0  0  0  0  0  0  0  0  0  0
    0.6484   -1.1393    5.1764 N   0  0  0  0  0  0  0  0  0  0  0  0
   -0.2154    0.0352    4.9533 C   0  0  2  0  0  0  0  0  0  0  0  0
    0.7019    1.2466    4.8673 C   0  0  0  0  0  0  0  0  0  0  0  0
    1.8064    1.2925    5.4145 O   0  0  0  0  0  0  0  0  0  0  0  0
   -0.9706    0.1691    6.2945 C   0  0  0  0  0  0  0  0  0  0  0  0
   -1.7262   -1.0269    6.6367 C   0  0  0  0  0  0  0  0  0  0  0  0
   -2.9626   -1.4418    6.3828 N   0  0  0  0  0  0  0  0  0  0  0  0
   -1.1726   -2.0561    7.4213 C   0  0  0  0  0  0  0  0  0  0  0  0
   -3.1801   -2.6304    6.9529 C   0  0  0  0  0  0  0  0  0  0  0  0
   -2.0759   -3.0267    7.6034 N   0  0  0  0  0  0  0  0  0  0  0  0
    1.5527   -0.9070    4.6909 H   0  0  0  0  0  0  0  0  0  0  0  0
   -0.9090   -0.0344    4.1445 H   0  0  0  0  0  0  0  0  0  0  0  0
   -0.1895    0.3723    7.0655 H   0  0  0  0  0  0  0  0  0  0  0  0
   -1.6705    1.0483    6.2228 H   0  0  0  0  0  0  0  0  0  0  0  0
   -0.1595   -2.0829    7.8305 H   0  0  0  0  0  0  0  0  0  0  0  0
   -4.1009   -3.2142    6.9122 H   0  0  0  0  0  0  0  0  0  0  0  0
   -1.9599   -3.9206    8.1416 H   0  0  0  0  0  0  0  0  0  0  0  0
    0.3276    2.3990    4.1236 N   0  0  0  0  0  0  0  0  0  0  0  0
    1.0730    3.6210    4.0348 C   0  0  1  0  0  0  0  0  0  0  0  0
    2.4484    3.3340    3.3754 C   0  0  2  0  0  0  0  0  0  0  0  0
    3.2501    4.5880    3.2541 C   0  0  2  0  0  0  0  0  0  0  0  0
    4.5891    4.2785    2.6223 C   0  0  1  0  0  0  0  0  0  0  0  0
    4.4354    3.6915    1.2759 N   0  0  2  0  0  0  0  0  0  0  0  0
    0.3691    4.6806    3.1920 C   0  0  0  0  0  0  0  0  0  0  0  0
   -0.8669    4.8553    3.7766 O   0  0  0  0  0  0  0  0  0  0  0  0
   -0.5562    2.3184    3.6126 H   0  0  0  0  0  0  0  0  0  0  0  0
    1.3327    3.9948    5.0051 H   0  0  0  0  0  0  0  0  0  0  0  0
    2.3281    2.8878    2.3738 H   0  0  0  0  0  0  0  0  0  0  0  0
    3.0342    2.6320    3.9882 H   0  0  0  0  0  0  0  0  0  0  0  0
    3.4365    5.0742    4.2180 H   0  0  0  0  0  0  0  0  0  0  0  0
    2.7225    5.2343    2.5213 H   0  0  0  0  0  0  0  0  0  0  0  0
    5.2070    5.2069    2.5565 H   0  0  0  0  0  0  0  0  0  0  0  0
    5.1389    3.5629    3.2530 H   0  0  0  0  0  0  0  0  0  0  0  0
    5.1148    4.1860    0.6063 H   0  0  0  0  0  0  0  0  0  0  0  0
    3.4312    3.8105    0.9352 H   0  0  0  0  0  0  0  0  0  0  0  0
    4.6960    2.6470    1.3071 H   0  0  0  0  0  0  0  0  0  0  0  0
    0.3506    4.3667    1.8573 N   0  0  0  0  0  0  0  0  0  0  0  0
   -0.1260    5.1517    0.8008 C   0  0  2  0  0  0  0  0  0  0  0  0
   -1.6584    5.2029    0.7047 C   0  0  0  0  0  0  0  0  0  0  0  0
   -2.1311    5.8088    1.8695 O   0  0  0  0  0  0  0  0  0  0  0  0
    0.4525    4.6715   -0.5282 C   0  0  2  0  0  0  0  0  0  0  0  0
    0.0279    5.4629   -1.7053 C   0  0  1  0  0  0  0  0  0  0  0  0
    0.4217    6.9242   -1.6079 C   0  0  1  0  0  0  0  0  0  0  0  0
    1.9233    7.0806   -1.4862 C   0  0  2  0  0  0  0  0  0  0  0  0
    0.4503    3.3737    1.5866 H   0  0  0  0  0  0  0  0  0  0  0  0
    0.2071    6.2405    0.8973 H   0  0  0  0  0  0  0  0  0  0  0  0
    0.1793    3.6035   -0.6937 H   0  0  0  0  0  0  0  0  0  0  0  0
    1.5639    4.6484   -0.4502 H   0  0  0  0  0  0  0  0  0  0  0  0
    0.5538    5.0876   -2.6389 H   0  0  0  0  0  0  0  0  0  0  0  0
   -1.0365    5.4175   -1.9578 H   0  0  0  0  0  0  0  0  0  0  0  0
    0.1073    7.4593   -2.5287 H   0  0  0  0  0  0  0  0  0  0  0  0
   -0.0562    7.4197   -0.7427 H   0  0  0  0  0  0  0  0  0  0  0  0
    2.4880    6.2409   -1.9577 H   0  0  0  0  0  0  0  0  0  0  0  0
    2.1849    7.2198   -0.4270 H   0  0  0  0  0  0  0  0  0  0  0  0
    2.2314    7.9978   -2.0265 H   0  0  0  0  0  0  0  0  0  0  0  0
   -2.0810    3.8437    0.6660 N   0  0  0  0  0  0  0  0  0  0  0  0
   -3.4455    3.5168    0.8209 C   0  0  2  0  0  0  0  0  0  0  0  0
   -3.4344    2.0081    1.0796 C   0  0  0  0  0  0  0  0  0  0  0  0
   -2.3846    1.3540    1.1066 O   0  0  0  0  0  0  0  0  0  0  0  0
   -4.3579    3.6724   -0.3515 C   0  0  0  0  0  0  0  0  0  0  0  0
   -4.5035    4.9882   -0.9506 C   0  0  0  0  0  0  0  0  0  0  0  0
   -5.3457    5.9668   -0.4220 C   0  0  0  0  0  0  0  0  0  0  0  0
   -3.8529    5.3238   -2.1151 C   0  0  0  0  0  0  0  0  0  0  0  0
   -5.5005    7.2014   -1.0554 C   0  0  0  0  0  0  0  0  0  0  0  0
   -3.9871    6.5295   -2.7589 C   0  0  0  0  0  0  0  0  0  0  0  0
   -4.8225    7.4813   -2.2217 C   0  0  0  0  0  0  0  0  0  0  0  0
   -4.9620    8.7068   -2.8730 O   0  0  0  0  0  0  0  0  0  0  0  0
   -1.7500    3.3902   -0.2230 H   0  0  0  0  0  0  0  0  0  0  0  0
   -3.8879    4.0196    1.7188 H   0  0  0  0  0  0  0  0  0  0  0  0
   -3.9572    2.9554   -1.1361 H   0  0  0  0  0  0  0  0  0  0  0  0
   -5.3376    3.2121   -0.0800 H   0  0  0  0  0  0  0  0  0  0  0  0
   -5.8893    5.7505    0.5108 H   0  0  0  0  0  0  0  0  0  0  0  0
   -3.1978    4.5804   -2.5427 H   0  0  0  0  0  0  0  0  0  0  0  0
   -6.1515    7.9677   -0.6543 H   0  0  0  0  0  0  0  0  0  0  0  0
   -3.4560    6.7673   -3.6875 H   0  0  0  0  0  0  0  0  0  0  0  0
   -4.4503    8.9416   -3.7065 H   0  0  0  0  0  0  0  0  0  0  0  0
   -4.6276    1.2674    1.3046 N   0  0  0  0  0  0  0  0  0  0  0  0
   -4.5796   -0.1587    1.5566 C   0  0  2  0  0  0  0  0  0  0  0  0
   -5.0052   -0.8536    0.2336 C   0  0  0  0  0  0  0  0  0  0  0  0
   -6.2964   -0.3675   -0.0211 O   0  0  0  0  0  0  0  0  0  0  0  0
   -5.5157   -0.6305    2.6239 C   0  0  2  0  0  0  0  0  0  0  0  0
   -5.3076   -0.0362    3.9829 C   0  0  1  0  0  0  0  0  0  0  0  0
   -5.5221    1.4160    3.9701 N   0  0  2  0  0  0  0  0  0  0  0  0
   -5.4921    1.8004    1.2711 H   0  0  0  0  0  0  0  0  0  0  0  0
   -3.5576   -0.5205    1.7520 H   0  0  0  0  0  0  0  0  0  0  0  0
   -5.4379   -1.7542    2.7567 H   0  0  0  0  0  0  0  0  0  0  0  0
   -6.5931   -0.4865    2.2951 H   0  0  0  0  0  0  0  0  0  0  0  0
   -5.9875   -0.5010    4.7392 H   0  0  0  0  0  0  0  0  0  0  0  0
   -4.2305   -0.1961    4.2994 H   0  0  0  0  0  0  0  0  0  0  0  0
   -6.4067    1.6427    3.4163 H   0  0  0  0  0  0  0  0  0  0  0  0
   -4.6795    1.9365    3.6225 H   0  0  0  0  0  0  0  0  0  0  0  0
   -5.7072    1.7224    5.0020 H   0  0  0  0  0  0  0  0  0  0  0  0
   -5.0420   -2.2340    0.2718 N   0  0  0  0  0  0  0  0  0  0  0  0
   -3.9332   -3.0760    0.2263 C   0  0  2  0  0  0  0  0  0  0  0  0
   -3.4751   -3.3870   -1.1898 C   0  0  0  0  0  0  0  0  0  0  0  0
   -2.7221   -4.3315   -1.4477 O   0  0  0  0  0  0  0  0  0  0  0  0
   -4.1493   -4.3417    0.9863 C   0  0  0  0  0  0  0  0  0  0  0  0
   -2.5709   -5.2654    1.0483 S   0  0  0  0  0  0  0  0  0  0  0  0
   -5.7804   -2.6052    0.8810 H   0  0  0  0  0  0  0  0  0  0  0  0
   -3.0351   -2.5685    0.7298 H   0  0  0  0  0  0  0  0  0  0  0  0
   -4.5705   -4.1752    1.9973 H   0  0  0  0  0  0  0  0  0  0  0  0
   -4.8635   -5.0076    0.4330 H   0  0  0  0  0  0  0  0  0  0  0  0
   -3.9030   -2.5870   -2.2593 N   0  0  0  0  0  0  0  0  0  0  0  0
   -3.5166   -2.7231   -3.6837 C   0  0  2  0  0  0  0  0  0  0  0  0
   -2.0410   -2.6938   -3.7793 C   0  0  0  0  0  0  0  0  0  0  0  0
   -1.4001   -2.7148   -2.7083 O   0  0  0  0  0  0  0  0  0  0  0  0
   -4.3033   -1.7400   -4.4248 C   0  0  2  0  0  0  0  0  0  0  0  0
   -4.1643   -1.6030   -5.8919 C   0  0  0  0  0  0  0  0  0  0  0  0
   -4.2275   -0.3362   -3.8378 C   0  0  0  0  0  0  0  0  0  0  0  0
   -4.4843   -2.8708   -6.6443 C   0  0  0  0  0  0  0  0  0  0  0  0
   -4.5760   -1.8544   -2.0545 H   0  0  0  0  0  0  0  0  0  0  0  0
   -3.8121   -3.7772   -3.9843 H   0  0  0  0  0  0  0  0  0  0  0  0
   -5.4013   -2.0399   -4.2640 H   0  0  0  0  0  0  0  0  0  0  0  0
   -5.0435   -0.9022   -6.1836 H   0  0  0  0  0  0  0  0  0  0  0  0
   -3.3088   -1.0324   -6.2669 H   0  0  0  0  0  0  0  0  0  0  0  0
   -3.2079   -0.1112   -3.4808 H   0  0  0  0  0  0  0  0  0  0  0  0
   -5.0167   -0.2139   -3.1041 H   0  0  0  0  0  0  0  0  0  0  0  0
   -4.4382    0.3777   -4.6563 H   0  0  0  0  0  0  0  0  0  0  0  0
   -5.5131   -2.8568   -7.0361 H   0  0  0  0  0  0  0  0  0  0  0  0
   -4.3723   -3.7375   -5.9413 H   0  0  0  0  0  0  0  0  0  0  0  0
   -3.7911   -2.9786   -7.4795 H   0  0  0  0  0  0  0  0  0  0  0  0
   -1.2373   -2.6373   -4.9491 N   0  0  0  0  0  0  0  0  0  0  0  0
    0.1828   -2.7376   -4.7561 C   0  0  2  0  0  0  0  0  0  0  0  0
    0.7208   -1.8091   -3.6905 C   0  0  0  0  0  0  0  0  0  0  0  0
    0.1649   -0.8228   -3.2373 O   0  0  0  0  0  0  0  0  0  0  0  0
    1.0604   -2.8773   -5.9022 C   0  0  0  0  0  0  0  0  0  0  0  0
    1.0648   -4.0236   -6.8238 C   0  0  0  0  0  0  0  0  0  0  0  0
   -0.0796   -4.4626   -7.6123 C   0  0  0  0  0  0  0  0  0  0  0  0
   -1.2367   -4.9879   -6.9735 N   0  0  0  0  0  0  0  0  0  0  0  0
   -2.3140   -5.4087   -7.8516 C   0  0  0  0  0  0  0  0  0  0  0  0
   -3.5047   -5.9576   -7.3039 N   0  0  0  0  0  0  0  0  0  0  0  0
   -2.1921   -5.2972   -9.1257 N   0  0  0  0  0  0  0  0  0  0  0  0
   -1.7174   -2.5353   -5.8303 H   0  0  0  0  0  0  0  0  0  0  0  0
    0.2308   -3.7269   -4.1458 H   0  0  0  0  0  0  0  0  0  0  0  0
    1.0706   -1.8913   -6.5260 H   0  0  0  0  0  0  0  0  0  0  0  0
    2.1474   -2.8155   -5.5129 H   0  0  0  0  0  0  0  0  0  0  0  0
    2.0084   -3.9204   -7.4650 H   0  0  0  0  0  0  0  0  0  0  0  0
    1.3530   -4.9412   -6.1713 H   0  0  0  0  0  0  0  0  0  0  0  0
   -0.3678   -3.7032   -8.4092 H   0  0  0  0  0  0  0  0  0  0  0  0
    0.3000   -5.3172   -8.2758 H   0  0  0  0  0  0  0  0  0  0  0  0
   -1.4159   -5.1267   -5.9684 H   0  0  0  0  0  0  0  0  0  0  0  0
   -3.5363   -6.6572   -6.5354 H   0  0  0  0  0  0  0  0  0  0  0  0
   -4.4029   -5.6094   -7.7345 H   0  0  0  0  0  0  0  0  0  0  0  0
   -1.3805   -4.9273   -9.6319 H   0  0  0  0  0  0  0  0  0  0  0  0
   -3.0020   -5.6107   -9.7416 H   0  0  0  0  0  0  0  0  0  0  0  0
    1.9936   -2.1396   -3.1755 N   0  0  0  0  0  0  0  0  0  0  0  0
    2.6271   -1.4520   -2.0283 C   0  0  2  0  0  0  0  0  0  0  0  0
    3.9990   -1.0499   -2.2804 C   0  0  0  0  0  0  0  0  0  0  0  0
    4.5707   -1.4300   -3.3371 O   0  0  0  0  0  0  0  0  0  0  0  0
    2.6699   -2.6631   -1.0412 C   0  0  0  0  0  0  0  0  0  0  0  0
    3.4572   -2.3967    0.4880 S   0  0  0  0  0  0  0  0  0  0  0  0
    2.5158   -2.8879   -3.5947 H   0  0  0  0  0  0  0  0  0  0  0  0
    1.9576   -0.6673   -1.6306 H   0  0  0  0  0  0  0  0  0  0  0  0
    3.2591   -3.4578   -1.6104 H   0  0  0  0  0  0  0  0  0  0  0  0
    1.6374   -3.0663   -1.0590 H   0  0  0  0  0  0  0  0  0  0  0  0
    4.6788   -0.2337   -1.3481 N   0  0  0  0  0  0  0  0  0  0  0  0
    6.0460    0.2193   -1.5470 C   0  0  2  0  0  0  0  0  0  0  0  0
    6.8547    0.2904   -0.3254 C   0  0  0  0  0  0  0  0  0  0  0  0
    8.0724    0.6733   -0.4738 O   0  0  0  0  0  0  0  0  0  0  0  0
    6.0116    1.6646   -2.0919 C   0  0  0  0  0  0  0  0  0  0  0  0
    5.2807    1.6937   -3.3874 C   0  0  0  0  0  0  0  0  0  0  0  0
    5.9747    1.5137   -4.5583 C   0  0  0  0  0  0  0  0  0  0  0  0
    3.9184    1.8932   -3.4911 C   0  0  0  0  0  0  0  0  0  0  0  0
    5.3924    1.5215   -5.8095 C   0  0  0  0  0  0  0  0  0  0  0  0
    3.3085    1.9063   -4.7229 C   0  0  0  0  0  0  0  0  0  0  0  0
    4.0227    1.7227   -5.8956 C   0  0  0  0  0  0  0  0  0  0  0  0
    3.3886    1.7386   -7.1304 O   0  0  0  0  0  0  0  0  0  0  0  0
    4.2003    0.0679   -0.4786 H   0  0  0  0  0  0  0  0  0  0  0  0
    6.5485   -0.3371   -2.3790 H   0  0  0  0  0  0  0  0  0  0  0  0
    7.0496    1.9973   -2.2891 H   0  0  0  0  0  0  0  0  0  0  0  0
    5.5552    2.3576   -1.3806 H   0  0  0  0  0  0  0  0  0  0  0  0
    7.0620    1.3540   -4.4904 H   0  0  0  0  0  0  0  0  0  0  0  0
    3.3789    2.0331   -2.5629 H   0  0  0  0  0  0  0  0  0  0  0  0
    6.0023    1.3725   -6.7184 H   0  0  0  0  0  0  0  0  0  0  0  0
    2.2259    2.0644   -4.8051 H   0  0  0  0  0  0  0  0  0  0  0  0
    3.9675    1.9797   -7.9452 H   0  0  0  0  0  0  0  0  0  0  0  0
    6.4513   -0.0085    0.9767 N   0  0  0  0  0  0  0  0  0  0  0  0
    7.3578    0.1095    2.0954 C   0  0  2  0  0  0  0  0  0  0  0  0
    7.6407   -1.2072    2.7523 C   0  0  0  0  0  0  0  0  0  0  0  0
    7.1215   -2.2743    2.3406 O   0  0  0  0  0  0  0  0  0  0  0  0
    6.8465    1.1385    3.0732 C   0  0  0  0  0  0  0  0  0  0  0  0
    5.4825   -0.3180    1.1457 H   0  0  0  0  0  0  0  0  0  0  0  0
    8.3447    0.4971    1.7047 H   0  0  0  0  0  0  0  0  0  0  0  0
    7.2030    2.1672    2.8519 H   0  0  0  0  0  0  0  0  0  0  0  0
    7.1162    0.8546    4.1107 H   0  0  0  0  0  0  0  0  0  0  0  0
    5.7292    1.1836    3.0237 H   0  0  0  0  0  0  0  0  0  0  0  0
    8.5310   -1.1617    3.8672 N   0  0  0  0  0  0  0  0  0  0  0  0
    9.5632   -1.4069    3.7753 H   0  0  0  0  0  0  0  0  0  0  0  0
    8.2253   -0.8879    4.8321 H   0  0  0  0  0  0  0  0  0  0  0  0
    0.7801   -3.5959    0.8796 H   0  0  0  0  0  0  0  0  0  0  0  0
   -0.2599   -5.9512    2.2394 H   0  0  0  0  0  0  0  0  0  0  0  0
   -0.8629   -4.5634    4.3242 H   0  0  0  0  0  0  0  0  0  0  0  0
    1.3134   -3.5490    5.2052 H   0  0  0  0  0  0  0  0  0  0  0  0
    1.8369   -2.0826    2.7945 H   0  0  0  0  0  0  0  0  0  0  0  0
    2.5122   -5.0553    2.9680 H   0  0  0  0  0  0  0  0  0  0  0  0
   -0.9940   -2.2972    4.6121 H   0  0  0  0  0  0  0  0  0  0  0  0
   -0.9206   -1.3943    2.6971 H   0  0  0  0  0  0  0  0  0  0  0  0
    0.9328    5.6518    3.4235 H   0  0  0  0  0  0  0  0  0  0  0  0
   -0.9423    5.6369    4.3446 H   0  0  0  0  0  0  0  0  0  0  0  0
   -1.8621    5.8107   -0.1876 H   0  0  0  0  0  0  0  0  0  0  0  0
   -2.8896    6.4090    1.7215 H   0  0  0  0  0  0  0  0  0  0  0  0
   -4.2412   -0.4592   -0.4709 H   0  0  0  0  0  0  0  0  0  0  0  0
   -6.9801   -1.0646    0.1306 H   0  0  0  0  0  0  0  0  0  0  0  0
  1  2  1  0
  1 11  1  1
  1 12  1  0
  1 13  1  0
  2  3  1  0
  2  7  1  0
  3  4  1  0
  3 10  1  0
  4  5  1  0
  4 14  1  0
  5  6  1  0
  5  9  1  0
  6  7  1  0
  6 15  1  0
  7  8  1  0
  8 16  1  6
  8 17  1  0
  8171  1  0
  9 19  1  0
  9 21  1  0
 10 18  1  1
 10 20  1  0
 10118  1  0
 23 38  1  0
 38 39  1  0
 38 46  1  0
 39 40  1  0
 39 44  1  0
 39 47  1  1
 40 41  1  0
 40 48  1  6
 40 49  1  0
 41 42  1  0
 41 50  1  1
 41 51  1  0
 42 43  1  0
 42 52  1  6
 42 53  1  0
 43 54  1  6
 43 55  1  0
 44 45  1  0
 44 57  1  0
 57 58  1  0
 57 65  1  0
 58 59  1  0
 58 61  1  0
 58 66  1  1
 59 60  1  0
 59 76  1  0
 61 62  1  0
 61 67  1  6
 61 68  1  0
 62 63  1  0
 62 69  1  6
 62 70  1  0
 63 64  1  0
 63 71  1  6
 63 72  1  0
 64 73  1  6
 64 74  1  0
 64 75  1  0
 78 97  1  0
 97 98  1  0
 97104  1  0
 98 99  1  0
 98101  1  0
 98105  1  1
 99100  1  0
 99113  1  0
101102  1  0
101106  1  1
101107  1  0
102103  1  0
102108  1  1
102109  1  0
103110  1  6
103111  1  0
199207  1  0
207208  1  0
207209  1  0
 22 21  1  0
 23 22  1  0
 24 23  2  0
 25 22  1  0
 26 25  1  0
 27 26  1  0
 28 26  2  0
 29 27  2  0
 30 28  1  0
 30 29  1  0
 31 21  1  0
 22 32  1  6
 33 25  1  0
 34 25  1  0
 35 28  1  0
 36 29  1  0
 37 30  1  0
 56 43  1  0
 77 76  1  0
 78 77  1  0
 79 78  2  0
 80 77  1  0
 81 80  1  0
 82 81  2  0
 83 81  1  0
 84 82  1  0
 85 83  2  0
 86 85  1  0
 86 84  2  0
 87 86  1  0
 88 76  1  0
 77 89  1  1
 90 80  1  0
 91 80  1  0
 92 82  1  0
 93 83  1  0
 94 84  1  0
 95 85  1  0
 96 87  1  0
112103  1  0
114113  1  0
115114  1  0
116115  2  0
117114  1  0
118117  1  0
119113  1  0
114120  1  1
121117  1  0
122117  1  0
123115  1  0
124123  1  0
125124  1  0
126125  2  0
127124  1  0
128127  1  0
129127  1  0
130128  1  0
131123  1  0
124132  1  6
127133  1  6
134128  1  0
135128  1  0
136129  1  0
137129  1  0
138129  1  0
139130  1  0
140130  1  0
141130  1  0
142125  1  0
143142  1  0
144143  1  0
145144  2  0
146143  1  0
147146  1  0
148147  1  0
149148  1  0
150149  1  0
151150  1  0
152150  2  0
153142  1  0
143154  1  1
155146  1  0
156146  1  0
157147  1  0
158147  1  0
159148  1  0
160148  1  0
161149  1  0
162151  1  0
163151  1  0
164152  1  0
165152  1  0
166144  1  0
167166  1  0
168167  1  0
169168  2  0
170167  1  0
171170  1  0
172166  1  0
167173  1  1
174170  1  0
175170  1  0
176168  1  0
177176  1  0
178177  1  0
179178  2  0
180177  1  0
181180  1  0
182181  2  0
183181  1  0
184182  1  0
185183  2  0
186185  1  0
186184  2  0
187186  1  0
188176  1  0
177189  1  6
190180  1  0
191180  1  0
192182  1  0
193183  1  0
194184  1  0
195185  1  0
196187  1  0
197178  1  0
198197  1  0
199198  1  0
200199  2  0
201198  1  0
202197  1  0
198203  1  6
204201  1  0
205201  1  0
206201  1  0
  2210  1  6
  3211  1  1
  4212  1  0
  5213  1  0
  6214  1  0
  7215  1  0
  9216  1  0
 19217  1  0
 44218  1  0
 45219  1  0
 59220  1  0
 60221  1  0
 99222  1  0
100223  1  0
M  CHG  3  43   1 103   1 152   1
M  END
$$$$
BP70
     RDKit          3D

223228  0  0  0  0  0  0  0  0999 V2000
   -1.5818    3.2471    0.5304 C   0  0  2  0  0  0  0  0  0  0  0  0
   -1.1696    2.7937   -0.8633 C   0  0  1  0  0  0  0  0  0  0  0  0
   -1.4599    1.3528   -0.9932 C   0  0  1  0  0  0  0  0  0  0  0  0
   -2.9167    1.0966   -1.1149 C   0  0  0  0  0  0  0  0  0  0  0  0
   -3.7244    1.9538   -1.9975 C   0  0  0  0  0  0  0  0  0  0  0  0
   -3.2292    3.3694   -2.1898 C   0  0  0  0  0  0  0  0  0  0  0  0
   -1.8250    3.6705   -1.8655 C   0  0  0  0  0  0  0  0  0  0  0  0
   -0.9477    3.6616   -3.1179 C   0  0  2  0  0  0  0  0  0  0  0  0
   -3.9939    1.2750   -3.3093 C   0  0  0  0  0  0  0  0  0  0  0  0
   -0.6404    0.5754   -1.9966 C   0  0  1  0  0  0  0  0  0  0  0  0
   -1.3068    2.5321    1.3143 H   0  0  0  0  0  0  0  0  0  0  0  0
   -2.6926    3.3336    0.5138 H   0  0  0  0  0  0  0  0  0  0  0  0
   -1.2109    4.2810    0.7042 H   0  0  0  0  0  0  0  0  0  0  0  0
   -3.0042    0.0029   -1.4181 H   0  0  0  0  0  0  0  0  0  0  0  0
   -3.8769    4.0130   -1.5103 H   0  0  0  0  0  0  0  0  0  0  0  0
   -0.9809    4.6751   -3.6227 H   0  0  0  0  0  0  0  0  0  0  0  0
   -1.3672    2.9828   -3.9061 H   0  0  0  0  0  0  0  0  0  0  0  0
   -0.7871    0.7688   -3.0332 H   0  0  0  0  0  0  0  0  0  0  0  0
   -3.9876    2.3245   -4.3062 O   0  0  0  0  0  0  0  0  0  0  0  0
    0.4040    0.6413   -1.6437 H   0  0  0  0  0  0  0  0  0  0  0  0
   -5.1162    0.5162   -3.5296 N   0  0  0  0  0  0  0  0  0  0  0  0
   -5.3170   -0.8468   -3.2591 C   0  0  2  0  0  0  0  0  0  0  0  0
   -5.6995   -1.2514   -1.8904 C   0  0  0  0  0  0  0  0  0  0  0  0
   -5.6352   -0.5366   -0.8760 O   0  0  0  0  0  0  0  0  0  0  0  0
   -4.2331   -1.6855   -3.9090 C   0  0  0  0  0  0  0  0  0  0  0  0
   -4.2444   -3.1238   -3.7558 C   0  0  0  0  0  0  0  0  0  0  0  0
   -4.8438   -4.0648   -4.5553 N   0  0  0  0  0  0  0  0  0  0  0  0
   -3.6002   -3.8594   -2.7516 C   0  0  0  0  0  0  0  0  0  0  0  0
   -4.5668   -5.2931   -4.0492 C   0  0  0  0  0  0  0  0  0  0  0  0
   -3.8064   -5.1734   -2.9441 N   0  0  0  0  0  0  0  0  0  0  0  0
   -5.9260    0.9706   -3.9759 H   0  0  0  0  0  0  0  0  0  0  0  0
   -6.2492   -1.1395   -3.8721 H   0  0  0  0  0  0  0  0  0  0  0  0
   -3.2357   -1.2532   -3.6765 H   0  0  0  0  0  0  0  0  0  0  0  0
   -4.4070   -1.5011   -5.0290 H   0  0  0  0  0  0  0  0  0  0  0  0
   -3.0344   -3.4327   -1.9440 H   0  0  0  0  0  0  0  0  0  0  0  0
   -4.8787   -6.2585   -4.4267 H   0  0  0  0  0  0  0  0  0  0  0  0
   -3.4143   -5.9006   -2.3123 H   0  0  0  0  0  0  0  0  0  0  0  0
   -6.2084   -2.5650   -1.6348 N   0  0  0  0  0  0  0  0  0  0  0  0
   -6.6976   -3.0591   -0.3658 C   0  0  1  0  0  0  0  0  0  0  0  0
   -8.2615   -3.0392   -0.4925 C   0  0  2  0  0  0  0  0  0  0  0  0
   -8.7692   -1.6669   -0.7662 C   0  0  2  0  0  0  0  0  0  0  0  0
  -10.3014   -1.6513   -0.8982 C   0  0  1  0  0  0  0  0  0  0  0  0
  -10.7456   -0.2750   -1.1788 N   0  0  2  0  0  0  0  0  0  0  0  0
   -6.3203   -4.4061    0.0494 C   0  0  0  0  0  0  0  0  0  0  0  0
   -6.6320   -5.2843   -1.0364 O   0  0  0  0  0  0  0  0  0  0  0  0
   -6.2616   -3.1893   -2.4302 H   0  0  0  0  0  0  0  0  0  0  0  0
   -6.5205   -2.2212    0.3464 H   0  0  0  0  0  0  0  0  0  0  0  0
   -8.7118   -3.4223    0.4260 H   0  0  0  0  0  0  0  0  0  0  0  0
   -8.5563   -3.6960   -1.3265 H   0  0  0  0  0  0  0  0  0  0  0  0
   -8.4269   -1.2669   -1.7597 H   0  0  0  0  0  0  0  0  0  0  0  0
   -8.5473   -0.9419    0.0387 H   0  0  0  0  0  0  0  0  0  0  0  0
  -10.5956   -2.2928   -1.7509 H   0  0  0  0  0  0  0  0  0  0  0  0
  -10.7942   -2.0671   -0.0069 H   0  0  0  0  0  0  0  0  0  0  0  0
   -9.9100    0.2753   -1.5784 H   0  0  0  0  0  0  0  0  0  0  0  0
  -11.0884    0.1887   -0.2936 H   0  0  0  0  0  0  0  0  0  0  0  0
  -11.5205   -0.3167   -1.9217 H   0  0  0  0  0  0  0  0  0  0  0  0
   -5.2021   -4.8348    0.7030 N   0  0  0  0  0  0  0  0  0  0  0  0
   -4.9881   -4.4153    2.1172 C   0  0  2  0  0  0  0  0  0  0  0  0
   -4.1100   -5.4913    2.6876 C   0  0  0  0  0  0  0  0  0  0  0  0
   -4.9202   -6.6900    2.6409 O   0  0  0  0  0  0  0  0  0  0  0  0
   -6.2731   -4.2769    2.7976 C   0  0  2  0  0  0  0  0  0  0  0  0
   -6.6305   -3.8498    4.1304 C   0  0  1  0  0  0  0  0  0  0  0  0
   -6.2326   -4.4017    5.4283 C   0  0  1  0  0  0  0  0  0  0  0  0
   -4.8245   -4.2517    5.8710 C   0  0  2  0  0  0  0  0  0  0  0  0
   -4.9553   -5.8093    0.5390 H   0  0  0  0  0  0  0  0  0  0  0  0
   -4.4358   -3.4771    2.0791 H   0  0  0  0  0  0  0  0  0  0  0  0
   -6.8960   -5.2696    2.6475 H   0  0  0  0  0  0  0  0  0  0  0  0
   -6.9818   -3.6208    2.1025 H   0  0  0  0  0  0  0  0  0  0  0  0
   -6.4359   -2.6979    4.1683 H   0  0  0  0  0  0  0  0  0  0  0  0
   -7.8012   -3.9026    4.1612 H   0  0  0  0  0  0  0  0  0  0  0  0
   -6.9026   -4.0137    6.2698 H   0  0  0  0  0  0  0  0  0  0  0  0
   -6.4514   -5.5200    5.5015 H   0  0  0  0  0  0  0  0  0  0  0  0
   -4.8035   -3.7752    6.8892 H   0  0  0  0  0  0  0  0  0  0  0  0
   -4.2614   -3.5872    5.1505 H   0  0  0  0  0  0  0  0  0  0  0  0
   -4.2423   -5.1760    5.9789 H   0  0  0  0  0  0  0  0  0  0  0  0
   -3.0059   -5.9212    1.8607 N   0  0  0  0  0  0  0  0  0  0  0  0
   -2.0949   -5.0155    1.3622 C   0  0  2  0  0  0  0  0  0  0  0  0
   -1.1489   -5.7670    0.4037 C   0  0  0  0  0  0  0  0  0  0  0  0
   -0.9167   -6.9505    0.4260 O   0  0  0  0  0  0  0  0  0  0  0  0
   -1.0492   -4.4972    2.3385 C   0  0  0  0  0  0  0  0  0  0  0  0
   -1.3601   -3.7925    3.5255 C   0  0  0  0  0  0  0  0  0  0  0  0
   -1.5940   -2.4126    3.5326 C   0  0  0  0  0  0  0  0  0  0  0  0
   -1.3440   -4.4184    4.7778 C   0  0  0  0  0  0  0  0  0  0  0  0
   -1.7951   -1.7082    4.6932 C   0  0  0  0  0  0  0  0  0  0  0  0
   -1.5424   -3.7257    5.9507 C   0  0  0  0  0  0  0  0  0  0  0  0
   -1.7714   -2.3528    5.9197 C   0  0  0  0  0  0  0  0  0  0  0  0
   -1.9732   -1.6489    7.1086 O   0  0  0  0  0  0  0  0  0  0  0  0
   -2.6683   -6.8395    2.1875 H   0  0  0  0  0  0  0  0  0  0  0  0
   -2.5461   -4.2168    0.7634 H   0  0  0  0  0  0  0  0  0  0  0  0
   -0.2485   -4.0063    1.6938 H   0  0  0  0  0  0  0  0  0  0  0  0
   -0.4282   -5.4265    2.6723 H   0  0  0  0  0  0  0  0  0  0  0  0
   -1.6249   -1.8432    2.6104 H   0  0  0  0  0  0  0  0  0  0  0  0
   -1.1679   -5.4856    4.8047 H   0  0  0  0  0  0  0  0  0  0  0  0
   -1.9774   -0.6471    4.7107 H   0  0  0  0  0  0  0  0  0  0  0  0
   -1.5287   -4.1917    6.9335 H   0  0  0  0  0  0  0  0  0  0  0  0
   -1.3610   -0.8406    7.2750 H   0  0  0  0  0  0  0  0  0  0  0  0
   -0.5468   -4.9502   -0.5657 N   0  0  0  0  0  0  0  0  0  0  0  0
    0.6147   -5.2121   -1.3844 C   0  0  2  0  0  0  0  0  0  0  0  0
    1.7570   -4.2950   -1.0111 C   0  0  0  0  0  0  0  0  0  0  0  0
    2.8352   -4.6585   -1.8547 O   0  0  0  0  0  0  0  0  0  0  0  0
    0.1836   -5.1676   -2.8010 C   0  0  2  0  0  0  0  0  0  0  0  0
    1.2244   -5.4183   -3.8468 C   0  0  1  0  0  0  0  0  0  0  0  0
    0.5387   -5.3660   -5.1954 N   0  0  2  0  0  0  0  0  0  0  0  0
   -1.0629   -4.0974   -0.8034 H   0  0  0  0  0  0  0  0  0  0  0  0
    0.9028   -6.2827   -1.1359 H   0  0  0  0  0  0  0  0  0  0  0  0
   -0.4186   -4.2574   -3.0499 H   0  0  0  0  0  0  0  0  0  0  0  0
   -0.5681   -6.0156   -2.9165 H   0  0  0  0  0  0  0  0  0  0  0  0
    1.9825   -4.5997   -3.8899 H   0  0  0  0  0  0  0  0  0  0  0  0
    1.7444   -6.3674   -3.7609 H   0  0  0  0  0  0  0  0  0  0  0  0
    1.2985   -5.1752   -5.9193 H   0  0  0  0  0  0  0  0  0  0  0  0
   -0.1670   -4.5683   -5.1528 H   0  0  0  0  0  0  0  0  0  0  0  0
    0.0673   -6.2969   -5.3592 H   0  0  0  0  0  0  0  0  0  0  0  0
    1.5106   -2.9500   -1.1797 N   0  0  0  0  0  0  0  0  0  0  0  0
    1.0302   -1.9885   -0.3382 C   0  0  2  0  0  0  0  0  0  0  0  0
    1.6989   -1.5890    0.9090 C   0  0  0  0  0  0  0  0  0  0  0  0
    1.0480   -0.8664    1.7044 O   0  0  0  0  0  0  0  0  0  0  0  0
   -0.4326   -1.6991   -0.1510 C   0  0  0  0  0  0  0  0  0  0  0  0
   -1.1607   -1.1753   -1.7116 S   0  0  0  0  0  0  0  0  0  0  0  0
    1.3853   -2.6477   -2.1893 H   0  0  0  0  0  0  0  0  0  0  0  0
    1.3034   -0.9797   -0.9852 H   0  0  0  0  0  0  0  0  0  0  0  0
   -0.4620   -0.7601    0.5369 H   0  0  0  0  0  0  0  0  0  0  0  0
   -1.0638   -2.3703    0.3648 H   0  0  0  0  0  0  0  0  0  0  0  0
    3.0129   -1.9085    1.3432 N   0  0  0  0  0  0  0  0  0  0  0  0
    3.4173   -1.3680    2.6172 C   0  0  2  0  0  0  0  0  0  0  0  0
    3.7675    0.0691    2.5566 C   0  0  0  0  0  0  0  0  0  0  0  0
    3.9278    0.6642    3.6367 O   0  0  0  0  0  0  0  0  0  0  0  0
    4.3285   -2.2379    3.3636 C   0  0  2  0  0  0  0  0  0  0  0  0
    3.7962   -3.5853    3.7486 C   0  0  0  0  0  0  0  0  0  0  0  0
    4.9130   -1.6227    4.6129 C   0  0  0  0  0  0  0  0  0  0  0  0
    3.3697   -4.4874    2.6518 C   0  0  0  0  0  0  0  0  0  0  0  0
    3.5557   -2.4828    0.7069 H   0  0  0  0  0  0  0  0  0  0  0  0
    2.4446   -1.3395    3.2317 H   0  0  0  0  0  0  0  0  0  0  0  0
    5.2273   -2.4430    2.6899 H   0  0  0  0  0  0  0  0  0  0  0  0
    4.4686   -4.0867    4.4935 H   0  0  0  0  0  0  0  0  0  0  0  0
    2.8654   -3.3758    4.3688 H   0  0  0  0  0  0  0  0  0  0  0  0
    5.5790   -2.4308    5.0351 H   0  0  0  0  0  0  0  0  0  0  0  0
    4.1124   -1.5101    5.3470 H   0  0  0  0  0  0  0  0  0  0  0  0
    5.5687   -0.7718    4.4480 H   0  0  0  0  0  0  0  0  0  0  0  0
    2.3063   -4.2988    2.3355 H   0  0  0  0  0  0  0  0  0  0  0  0
    3.9868   -4.5203    1.7586 H   0  0  0  0  0  0  0  0  0  0  0  0
    3.4141   -5.5436    3.0821 H   0  0  0  0  0  0  0  0  0  0  0  0
    3.9481    0.8474    1.3811 N   0  0  0  0  0  0  0  0  0  0  0  0
    4.2116    2.2583    1.5502 C   0  0  2  0  0  0  0  0  0  0  0  0
    3.8604    3.1890    0.5081 C   0  0  0  0  0  0  0  0  0  0  0  0
    3.9633    4.4182    0.7249 O   0  0  0  0  0  0  0  0  0  0  0  0
    5.6124    2.4735    2.1093 C   0  0  0  0  0  0  0  0  0  0  0  0
    6.7282    1.9375    1.3031 C   0  0  0  0  0  0  0  0  0  0  0  0
    8.0181    2.2326    2.0859 C   0  0  0  0  0  0  0  0  0  0  0  0
    8.2199    3.6472    2.2874 N   0  0  0  0  0  0  0  0  0  0  0  0
    9.3597    4.0595    3.0623 C   0  0  0  0  0  0  0  0  0  0  0  0
    9.5438    5.4603    3.2431 N   0  0  0  0  0  0  0  0  0  0  0  0
   10.1786    3.2016    3.5645 N   0  0  0  0  0  0  0  0  0  0  0  0
    3.8788    0.3395    0.5039 H   0  0  0  0  0  0  0  0  0  0  0  0
    3.5691    2.5242    2.4738 H   0  0  0  0  0  0  0  0  0  0  0  0
    5.6346    2.0978    3.1333 H   0  0  0  0  0  0  0  0  0  0  0  0
    5.7598    3.5889    2.2114 H   0  0  0  0  0  0  0  0  0  0  0  0
    6.8530    2.3667    0.3029 H   0  0  0  0  0  0  0  0  0  0  0  0
    6.7307    0.8388    1.1683 H   0  0  0  0  0  0  0  0  0  0  0  0
    8.9066    1.7998    1.5904 H   0  0  0  0  0  0  0  0  0  0  0  0
    7.9309    1.7757    3.1174 H   0  0  0  0  0  0  0  0  0  0  0  0
    7.5941    4.3787    1.9035 H   0  0  0  0  0  0  0  0  0  0  0  0
   10.4382    5.9350    2.9788 H   0  0  0  0  0  0  0  0  0  0  0  0
    8.7216    5.9727    3.6620 H   0  0  0  0  0  0  0  0  0  0  0  0
    9.9819    2.1920    3.3884 H   0  0  0  0  0  0  0  0  0  0  0  0
   10.9864    3.5582    4.1157 H   0  0  0  0  0  0  0  0  0  0  0  0
    3.3729    2.9065   -0.8305 N   0  0  0  0  0  0  0  0  0  0  0  0
    3.1499    3.9533   -1.7952 C   0  0  2  0  0  0  0  0  0  0  0  0
    4.2197    4.9327   -2.0192 C   0  0  0  0  0  0  0  0  0  0  0  0
    3.9063    5.9539   -2.7306 O   0  0  0  0  0  0  0  0  0  0  0  0
    1.7590    4.4494   -1.9742 C   0  0  0  0  0  0  0  0  0  0  0  0
    0.7479    3.2499   -2.8436 S   0  0  0  0  0  0  0  0  0  0  0  0
    3.2166    1.8993   -0.9750 H   0  0  0  0  0  0  0  0  0  0  0  0
    3.3055    3.2845   -2.8023 H   0  0  0  0  0  0  0  0  0  0  0  0
    1.8103    5.3763   -2.6215 H   0  0  0  0  0  0  0  0  0  0  0  0
    1.3126    4.8300   -1.0255 H   0  0  0  0  0  0  0  0  0  0  0  0
    5.5460    4.8861   -1.5616 N   0  0  0  0  0  0  0  0  0  0  0  0
    6.5537    5.8750   -1.8421 C   0  0  2  0  0  0  0  0  0  0  0  0
    7.6778    5.1144   -2.5144 C   0  0  0  0  0  0  0  0  0  0  0  0
    7.4585    3.8750   -2.6751 O   0  0  0  0  0  0  0  0  0  0  0  0
    7.1582    6.5964   -0.7055 C   0  0  0  0  0  0  0  0  0  0  0  0
    6.2970    7.3996    0.1481 C   0  0  0  0  0  0  0  0  0  0  0  0
    6.0393    8.7179   -0.2602 C   0  0  0  0  0  0  0  0  0  0  0  0
    5.7273    7.0251    1.3367 C   0  0  0  0  0  0  0  0  0  0  0  0
    5.2583    9.5415    0.5180 C   0  0  0  0  0  0  0  0  0  0  0  0
    4.9446    7.8514    2.1144 C   0  0  0  0  0  0  0  0  0  0  0  0
    4.6868    9.1688    1.7082 C   0  0  0  0  0  0  0  0  0  0  0  0
    3.9015    9.9827    2.4992 O   0  0  0  0  0  0  0  0  0  0  0  0
    5.8383    4.0604   -0.9998 H   0  0  0  0  0  0  0  0  0  0  0  0
    6.1033    6.6014   -2.5799 H   0  0  0  0  0  0  0  0  0  0  0  0
    7.9685    7.2647   -1.1256 H   0  0  0  0  0  0  0  0  0  0  0  0
    7.6841    5.8364   -0.0703 H   0  0  0  0  0  0  0  0  0  0  0  0
    6.4616    9.0893   -1.2082 H   0  0  0  0  0  0  0  0  0  0  0  0
    5.9023    6.0360    1.6895 H   0  0  0  0  0  0  0  0  0  0  0  0
    5.0742   10.5633    0.1687 H   0  0  0  0  0  0  0  0  0  0  0  0
    4.4978    7.5361    3.0589 H   0  0  0  0  0  0  0  0  0  0  0  0
    2.9325   10.1812    2.3063 H   0  0  0  0  0  0  0  0  0  0  0  0
    8.8769    5.7493   -2.9266 N   0  0  0  0  0  0  0  0  0  0  0  0
    9.8822    4.9145   -3.5549 C   0  0  2  0  0  0  0  0  0  0  0  0
   11.1269    4.8680   -2.7259 C   0  0  0  0  0  0  0  0  0  0  0  0
   11.2374    5.4866   -1.6345 O   0  0  0  0  0  0  0  0  0  0  0  0
   10.2687    5.3558   -4.9366 C   0  0  0  0  0  0  0  0  0  0  0  0
    9.0130    6.7609   -2.7829 H   0  0  0  0  0  0  0  0  0  0  0  0
    9.4421    3.8897   -3.6444 H   0  0  0  0  0  0  0  0  0  0  0  0
   10.1503    4.5245   -5.6895 H   0  0  0  0  0  0  0  0  0  0  0  0
   11.3605    5.6126   -5.0004 H   0  0  0  0  0  0  0  0  0  0  0  0
    9.6491    6.1817   -5.3121 H   0  0  0  0  0  0  0  0  0  0  0  0
   12.1957    4.0677   -3.2567 N   0  0  0  0  0  0  0  0  0  0  0  0
   13.1375    4.4697   -3.4550 H   0  0  0  0  0  0  0  0  0  0  0  0
   11.9497    3.0557   -3.4230 H   0  0  0  0  0  0  0  0  0  0  0  0
   -0.0412    2.8943   -0.8770 H   0  0  0  0  0  0  0  0  0  0  0  0
   -1.1690    0.9069    0.0099 H   0  0  0  0  0  0  0  0  0  0  0  0
   -3.3479    1.0683   -0.0668 H   0  0  0  0  0  0  0  0  0  0  0  0
   -4.7594    2.0114   -1.5123 H   0  0  0  0  0  0  0  0  0  0  0  0
   -3.5350    3.7800   -3.2015 H   0  0  0  0  0  0  0  0  0  0  0  0
   -1.7651    4.7466   -1.5204 H   0  0  0  0  0  0  0  0  0  0  0  0
   -3.0222    0.7509   -3.5713 H   0  0  0  0  0  0  0  0  0  0  0  0
   -3.8615    1.8357   -5.1656 H   0  0  0  0  0  0  0  0  0  0  0  0
   -7.2834   -4.7678    0.7099 H   0  0  0  0  0  0  0  0  0  0  0  0
   -5.9056   -5.9393   -1.0686 H   0  0  0  0  0  0  0  0  0  0  0  0
   -3.8392   -5.3736    3.7079 H   0  0  0  0  0  0  0  0  0  0  0  0
   -4.5814   -7.3120    3.3362 H   0  0  0  0  0  0  0  0  0  0  0  0
    2.1585   -4.5774    0.0046 H   0  0  0  0  0  0  0  0  0  0  0  0
    3.4834   -3.9326   -1.9328 H   0  0  0  0  0  0  0  0  0  0  0  0
  1  2  1  0
  1 11  1  1
  1 12  1  0
  1 13  1  0
  2  3  1  0
  2  7  1  0
  3  4  1  0
  3 10  1  0
  4  5  1  0
  4 14  1  0
  5  6  1  0
  5  9  1  0
  6  7  1  0
  6 15  1  0
  7  8  1  0
  8 16  1  6
  8 17  1  0
  8171  1  0
  9 19  1  0
  9 21  1  0
 10 18  1  6
 10 20  1  0
 10118  1  0
 23 38  1  0
 38 39  1  0
 38 46  1  0
 39 40  1  0
 39 44  1  0
 39 47  1  1
 40 41  1  0
 40 48  1  1
 40 49  1  0
 41 42  1  0
 41 50  1  6
 41 51  1  0
 42 43  1  0
 42 52  1  6
 42 53  1  0
 43 54  1  6
 43 55  1  0
 44 45  1  0
 44 57  1  0
 57 58  1  0
 57 65  1  0
 58 59  1  0
 58 61  1  0
 58 66  1  6
 59 60  1  0
 59 76  1  0
 61 62  1  0
 61 67  1  1
 61 68  1  0
 62 63  1  0
 62 69  1  1
 62 70  1  0
 63 64  1  0
 63 71  1  1
 63 72  1  0
 64 73  1  1
 64 74  1  0
 64 75  1  0
 78 97  1  0
 97 98  1  0
 97104  1  0
 98 99  1  0
 98101  1  0
 98105  1  1
 99100  1  0
 99113  1  0
101102  1  0
101106  1  6
101107  1  0
102103  1  0
102108  1  6
102109  1  0
103110  1  6
103111  1  0
199207  1  0
207208  1  0
207209  1  0
 22 21  1  0
 23 22  1  0
 24 23  2  0
 25 22  1  0
 26 25  1  0
 27 26  1  0
 28 26  2  0
 29 27  2  0
 30 28  1  0
 30 29  1  0
 31 21  1  0
 22 32  1  6
 33 25  1  0
 34 25  1  0
 35 28  1  0
 36 29  1  0
 37 30  1  0
 56 43  1  0
 77 76  1  0
 78 77  1  0
 79 78  2  0
 80 77  1  0
 81 80  1  0
 82 81  2  0
 83 81  1  0
 84 82  1  0
 85 83  2  0
 86 85  1  0
 86 84  2  0
 87 86  1  0
 88 76  1  0
 77 89  1  6
 90 80  1  0
 91 80  1  0
 92 82  1  0
 93 83  1  0
 94 84  1  0
 95 85  1  0
 96 87  1  0
112103  1  0
114113  1  0
115114  1  0
116115  2  0
117114  1  0
118117  1  0
119113  1  0
114120  1  6
121117  1  0
122117  1  0
123115  1  0
124123  1  0
125124  1  0
126125  2  0
127124  1  0
128127  1  0
129127  1  0
130128  1  0
131123  1  0
124132  1  1
127133  1  6
134128  1  0
135128  1  0
136129  1  0
137129  1  0
138129  1  0
139130  1  0
140130  1  0
141130  1  0
142125  1  0
143142  1  0
144143  1  0
145144  2  0
146143  1  0
147146  1  0
148147  1  0
149148  1  0
150149  1  0
151150  1  0
152150  2  0
153142  1  0
143154  1  1
155146  1  0
156146  1  0
157147  1  0
158147  1  0
159148  1  0
160148  1  0
161149  1  0
162151  1  0
163151  1  0
164152  1  0
165152  1  0
166144  1  0
167166  1  0
168167  1  0
169168  2  0
170167  1  0
171170  1  0
172166  1  0
167173  1  6
174170  1  0
175170  1  0
176168  1  0
177176  1  0
178177  1  0
179178  2  0
180177  1  0
181180  1  0
182181  2  0
183181  1  0
184182  1  0
185183  2  0
186185  1  0
186184  2  0
187186  1  0
188176  1  0
177189  1  6
190180  1  0
191180  1  0
192182  1  0
193183  1  0
194184  1  0
195185  1  0
196187  1  0
197178  1  0
198197  1  0
199198  1  0
200199  2  0
201198  1  0
202197  1  0
198203  1  6
204201  1  0
205201  1  0
206201  1  0
  2210  1  1
  3211  1  1
  4212  1  0
  5213  1  0
  6214  1  0
  7215  1  0
  9216  1  0
 19217  1  0
 44218  1  0
 45219  1  0
 59220  1  0
 60221  1  0
 99222  1  0
100223  1  0
M  CHG  3  43   1 103   1 152   1
M  END
$$$$
BP70
     RDKit          3D

223228  0  0  0  0  0  0  0  0999 V2000
    2.1519   -3.3670   -2.3938 C   0  0  2  0  0  0  0  0  0  0  0  0
    2.4085   -3.0184   -0.9353 C   0  0  1  0  0  0  0  0  0  0  0  0
    1.3502   -2.0324   -0.5294 C   0  0  1  0  0  0  0  0  0  0  0  0
    0.0255   -2.7346   -0.6897 C   0  0  0  0  0  0  0  0  0  0  0  0
   -0.0325   -3.9929    0.1545 C   0  0  0  0  0  0  0  0  0  0  0  0
    1.0316   -4.9670   -0.1842 C   0  0  0  0  0  0  0  0  0  0  0  0
    2.3845   -4.2253   -0.0582 C   0  0  0  0  0  0  0  0  0  0  0  0
    3.5187   -5.1784   -0.2871 C   0  0  2  0  0  0  0  0  0  0  0  0
   -1.4497   -4.4563    0.1633 C   0  0  0  0  0  0  0  0  0  0  0  0
    1.5017   -1.5054    0.8850 C   0  0  1  0  0  0  0  0  0  0  0  0
    1.4294   -4.1587   -2.5418 H   0  0  0  0  0  0  0  0  0  0  0  0
    3.0818   -3.6069   -2.9469 H   0  0  0  0  0  0  0  0  0  0  0  0
    1.7666   -2.4421   -2.9043 H   0  0  0  0  0  0  0  0  0  0  0  0
   -0.1755   -2.8995   -1.7418 H   0  0  0  0  0  0  0  0  0  0  0  0
    1.0808   -5.7390    0.6348 H   0  0  0  0  0  0  0  0  0  0  0  0
    3.0277   -6.1181   -0.7067 H   0  0  0  0  0  0  0  0  0  0  0  0
    3.8866   -5.5563    0.7543 H   0  0  0  0  0  0  0  0  0  0  0  0
    0.5684   -1.7636    1.4488 H   0  0  0  0  0  0  0  0  0  0  0  0
   -2.2079   -3.4442    0.7492 O   0  0  0  0  0  0  0  0  0  0  0  0
    2.4211   -1.8467    1.3666 H   0  0  0  0  0  0  0  0  0  0  0  0
   -1.8869   -4.8911   -1.1158 N   0  0  0  0  0  0  0  0  0  0  0  0
   -3.3866   -5.0649   -1.1588 C   0  0  2  0  0  0  0  0  0  0  0  0
   -3.7999   -3.6269   -1.2222 C   0  0  0  0  0  0  0  0  0  0  0  0
   -2.9323   -2.8350   -1.6522 O   0  0  0  0  0  0  0  0  0  0  0  0
   -3.8452   -5.8120    0.0308 C   0  0  0  0  0  0  0  0  0  0  0  0
   -5.2736   -6.1798    0.0532 C   0  0  0  0  0  0  0  0  0  0  0  0
   -6.2687   -6.0238   -0.8307 N   0  0  0  0  0  0  0  0  0  0  0  0
   -5.8448   -6.8020    1.1706 C   0  0  0  0  0  0  0  0  0  0  0  0
   -7.4224   -6.5054   -0.3443 C   0  0  0  0  0  0  0  0  0  0  0  0
   -7.1642   -6.9787    0.8753 N   0  0  0  0  0  0  0  0  0  0  0  0
   -1.5013   -5.8651   -1.2745 H   0  0  0  0  0  0  0  0  0  0  0  0
   -3.5512   -5.6483   -2.0724 H   0  0  0  0  0  0  0  0  0  0  0  0
   -3.6690   -5.2743    0.9959 H   0  0  0  0  0  0  0  0  0  0  0  0
   -3.2746   -6.7972    0.0390 H   0  0  0  0  0  0  0  0  0  0  0  0
   -5.3480   -7.0943    2.1029 H   0  0  0  0  0  0  0  0  0  0  0  0
   -8.4199   -6.5435   -0.7862 H   0  0  0  0  0  0  0  0  0  0  0  0
   -7.8429   -7.4216    1.5419 H   0  0  0  0  0  0  0  0  0  0  0  0
   -5.0132   -3.0201   -0.8728 N   0  0  0  0  0  0  0  0  0  0  0  0
   -5.2146   -1.5687   -1.0277 C   0  0  1  0  0  0  0  0  0  0  0  0
   -6.0636   -1.2459   -2.2348 C   0  0  2  0  0  0  0  0  0  0  0  0
   -7.4207   -1.8350   -2.2333 C   0  0  2  0  0  0  0  0  0  0  0  0
   -8.1005   -1.3446   -3.5210 C   0  0  1  0  0  0  0  0  0  0  0  0
   -7.3328   -1.8101   -4.6814 N   0  0  2  0  0  0  0  0  0  0  0  0
   -5.7702   -0.8861    0.1740 C   0  0  0  0  0  0  0  0  0  0  0  0
   -7.0076   -1.3513    0.6033 O   0  0  0  0  0  0  0  0  0  0  0  0
   -5.7582   -3.5498   -0.4880 H   0  0  0  0  0  0  0  0  0  0  0  0
   -4.2277   -1.1189   -1.2435 H   0  0  0  0  0  0  0  0  0  0  0  0
   -5.5452   -1.4630   -3.1866 H   0  0  0  0  0  0  0  0  0  0  0  0
   -6.1963   -0.1346   -2.2127 H   0  0  0  0  0  0  0  0  0  0  0  0
   -8.0974   -1.5886   -1.4303 H   0  0  0  0  0  0  0  0  0  0  0  0
   -7.4370   -2.9424   -2.3336 H   0  0  0  0  0  0  0  0  0  0  0  0
   -9.0830   -1.8241   -3.5821 H   0  0  0  0  0  0  0  0  0  0  0  0
   -8.1556   -0.2304   -3.4963 H   0  0  0  0  0  0  0  0  0  0  0  0
   -7.9931   -1.9047   -5.5243 H   0  0  0  0  0  0  0  0  0  0  0  0
   -6.9087   -2.7751   -4.4690 H   0  0  0  0  0  0  0  0  0  0  0  0
   -6.5357   -1.1283   -4.9160 H   0  0  0  0  0  0  0  0  0  0  0  0
   -4.8531   -0.5392    1.1933 N   0  0  0  0  0  0  0  0  0  0  0  0
   -5.3772   -0.0584    2.4153 C   0  0  2  0  0  0  0  0  0  0  0  0
   -4.4301    0.5843    3.3707 C   0  0  0  0  0  0  0  0  0  0  0  0
   -5.0712    1.0152    4.4862 O   0  0  0  0  0  0  0  0  0  0  0  0
   -6.0972   -1.1884    3.1800 C   0  0  2  0  0  0  0  0  0  0  0  0
   -5.1867   -2.3441    3.4496 C   0  0  1  0  0  0  0  0  0  0  0  0
   -6.0111   -3.4243    4.1556 C   0  0  1  0  0  0  0  0  0  0  0  0
   -5.0963   -4.6012    4.4212 C   0  0  2  0  0  0  0  0  0  0  0  0
   -4.1521   -1.2700    1.3394 H   0  0  0  0  0  0  0  0  0  0  0  0
   -6.1845    0.6787    2.1525 H   0  0  0  0  0  0  0  0  0  0  0  0
   -7.0932   -1.4375    2.8282 H   0  0  0  0  0  0  0  0  0  0  0  0
   -6.3032   -0.7759    4.2446 H   0  0  0  0  0  0  0  0  0  0  0  0
   -4.7627   -2.8204    2.5444 H   0  0  0  0  0  0  0  0  0  0  0  0
   -4.4548   -2.0302    4.2107 H   0  0  0  0  0  0  0  0  0  0  0  0
   -6.4399   -2.9756    5.0634 H   0  0  0  0  0  0  0  0  0  0  0  0
   -6.8067   -3.7189    3.4263 H   0  0  0  0  0  0  0  0  0  0  0  0
   -4.1197   -4.2311    4.7761 H   0  0  0  0  0  0  0  0  0  0  0  0
   -4.9328   -5.1382    3.4669 H   0  0  0  0  0  0  0  0  0  0  0  0
   -5.5190   -5.3095    5.1422 H   0  0  0  0  0  0  0  0  0  0  0  0
   -3.5812    1.6030    2.7950 N   0  0  0  0  0  0  0  0  0  0  0  0
   -4.2751    2.4138    1.8281 C   0  0  2  0  0  0  0  0  0  0  0  0
   -3.2670    3.2243    1.0445 C   0  0  0  0  0  0  0  0  0  0  0  0
   -3.6126    3.7525   -0.0314 O   0  0  0  0  0  0  0  0  0  0  0  0
   -5.2171    3.4348    2.4244 C   0  0  0  0  0  0  0  0  0  0  0  0
   -4.5838    4.4532    3.2819 C   0  0  0  0  0  0  0  0  0  0  0  0
   -4.3878    4.3546    4.6371 C   0  0  0  0  0  0  0  0  0  0  0  0
   -4.1806    5.6229    2.6897 C   0  0  0  0  0  0  0  0  0  0  0  0
   -3.8180    5.4119    5.2867 C   0  0  0  0  0  0  0  0  0  0  0  0
   -3.6057    6.6970    3.3185 C   0  0  0  0  0  0  0  0  0  0  0  0
   -3.4141    6.5787    4.7253 C   0  0  0  0  0  0  0  0  0  0  0  0
   -2.8422    7.6567    5.3498 O   0  0  0  0  0  0  0  0  0  0  0  0
   -3.1178    2.1863    3.5338 H   0  0  0  0  0  0  0  0  0  0  0  0
   -4.7751    1.7635    1.0992 H   0  0  0  0  0  0  0  0  0  0  0  0
   -5.6908    3.9495    1.5528 H   0  0  0  0  0  0  0  0  0  0  0  0
   -6.0805    2.9886    2.9693 H   0  0  0  0  0  0  0  0  0  0  0  0
   -4.6593    3.4933    5.1857 H   0  0  0  0  0  0  0  0  0  0  0  0
   -4.3241    5.7552    1.5988 H   0  0  0  0  0  0  0  0  0  0  0  0
   -3.6660    5.3028    6.3703 H   0  0  0  0  0  0  0  0  0  0  0  0
   -3.2893    7.6129    2.8354 H   0  0  0  0  0  0  0  0  0  0  0  0
   -1.9474    7.6026    5.8321 H   0  0  0  0  0  0  0  0  0  0  0  0
   -1.9402    3.4489    1.4397 N   0  0  0  0  0  0  0  0  0  0  0  0
   -0.9267    4.1299    0.6222 C   0  0  2  0  0  0  0  0  0  0  0  0
    0.3457    3.2314    0.6210 C   0  0  0  0  0  0  0  0  0  0  0  0
   -0.1631    2.0732    0.0113 O   0  0  0  0  0  0  0  0  0  0  0  0
   -0.6739    5.5454    0.9938 C   0  0  2  0  0  0  0  0  0  0  0  0
    0.3933    6.1648    0.0807 C   0  0  1  0  0  0  0  0  0  0  0  0
    0.5775    7.5969    0.4984 N   0  0  2  0  0  0  0  0  0  0  0  0
   -1.6801    3.1108    2.3770 H   0  0  0  0  0  0  0  0  0  0  0  0
   -1.3255    4.1814   -0.4341 H   0  0  0  0  0  0  0  0  0  0  0  0
   -0.4187    5.7553    2.0307 H   0  0  0  0  0  0  0  0  0  0  0  0
   -1.6113    6.1140    0.6773 H   0  0  0  0  0  0  0  0  0  0  0  0
    1.3611    5.6551    0.1887 H   0  0  0  0  0  0  0  0  0  0  0  0
    0.0690    6.1661   -0.9690 H   0  0  0  0  0  0  0  0  0  0  0  0
    0.3931    8.2081   -0.3661 H   0  0  0  0  0  0  0  0  0  0  0  0
    1.5852    7.7181    0.8183 H   0  0  0  0  0  0  0  0  0  0  0  0
   -0.1140    7.8093    1.2618 H   0  0  0  0  0  0  0  0  0  0  0  0
    0.7892    3.1407    1.8966 N   0  0  0  0  0  0  0  0  0  0  0  0
    1.7431    2.4638    2.5970 C   0  0  2  0  0  0  0  0  0  0  0  0
    3.1733    2.6121    2.3946 C   0  0  0  0  0  0  0  0  0  0  0  0
    3.9306    2.4187    3.4133 O   0  0  0  0  0  0  0  0  0  0  0  0
    1.4701    0.8967    2.5269 C   0  0  0  0  0  0  0  0  0  0  0  0
    1.5689    0.2982    0.8975 S   0  0  0  0  0  0  0  0  0  0  0  0
    0.5115    4.0485    2.4096 H   0  0  0  0  0  0  0  0  0  0  0  0
    1.5533    2.5800    3.6869 H   0  0  0  0  0  0  0  0  0  0  0  0
    0.4671    0.8071    2.9644 H   0  0  0  0  0  0  0  0  0  0  0  0
    2.2103    0.4638    3.1946 H   0  0  0  0  0  0  0  0  0  0  0  0
    3.9063    2.9394    1.2303 N   0  0  0  0  0  0  0  0  0  0  0  0
    5.3627    2.8949    1.3601 C   0  0  2  0  0  0  0  0  0  0  0  0
    5.9188    1.6416    1.9104 C   0  0  0  0  0  0  0  0  0  0  0  0
    7.1359    1.6245    2.2304 O   0  0  0  0  0  0  0  0  0  0  0  0
    5.8579    4.1070    2.0696 C   0  0  2  0  0  0  0  0  0  0  0  0
    5.5072    5.4013    1.3601 C   0  0  0  0  0  0  0  0  0  0  0  0
    7.3292    4.1125    2.3719 C   0  0  0  0  0  0  0  0  0  0  0  0
    6.0963    5.4694   -0.0284 C   0  0  0  0  0  0  0  0  0  0  0  0
    3.3822    3.1834    0.4001 H   0  0  0  0  0  0  0  0  0  0  0  0
    5.7272    2.9797    0.2720 H   0  0  0  0  0  0  0  0  0  0  0  0
    5.3542    4.2172    3.0732 H   0  0  0  0  0  0  0  0  0  0  0  0
    5.9232    6.2303    1.9550 H   0  0  0  0  0  0  0  0  0  0  0  0
    4.4053    5.5029    1.2815 H   0  0  0  0  0  0  0  0  0  0  0  0
    7.5517    3.6319    3.3505 H   0  0  0  0  0  0  0  0  0  0  0  0
    7.6252    5.1720    2.4866 H   0  0  0  0  0  0  0  0  0  0  0  0
    7.9576    3.6916    1.5396 H   0  0  0  0  0  0  0  0  0  0  0  0
    7.0879    4.9623   -0.1035 H   0  0  0  0  0  0  0  0  0  0  0  0
    6.1886    6.4961   -0.3949 H   0  0  0  0  0  0  0  0  0  0  0  0
    5.3742    4.9368   -0.6971 H   0  0  0  0  0  0  0  0  0  0  0  0
    5.2560    0.4061    2.1316 N   0  0  0  0  0  0  0  0  0  0  0  0
    5.9637   -0.7612    2.7425 C   0  0  2  0  0  0  0  0  0  0  0  0
    6.4066   -1.5910    1.5533 C   0  0  0  0  0  0  0  0  0  0  0  0
    7.4083   -2.3099    1.5622 O   0  0  0  0  0  0  0  0  0  0  0  0
    5.0532   -1.5340    3.6120 C   0  0  0  0  0  0  0  0  0  0  0  0
    4.4890   -0.8413    4.8028 C   0  0  0  0  0  0  0  0  0  0  0  0
    3.3849   -1.7014    5.4399 C   0  0  0  0  0  0  0  0  0  0  0  0
    2.8462   -1.0682    6.6253 N   0  0  0  0  0  0  0  0  0  0  0  0
    1.5891   -1.6557    7.0950 C   0  0  0  0  0  0  0  0  0  0  0  0
    1.0984   -0.9762    8.2802 N   0  0  0  0  0  0  0  0  0  0  0  0
    1.1104   -2.5650    6.5126 N   0  0  0  0  0  0  0  0  0  0  0  0
    4.2931    0.3506    1.8301 H   0  0  0  0  0  0  0  0  0  0  0  0
    6.8676   -0.4256    3.2408 H   0  0  0  0  0  0  0  0  0  0  0  0
    5.6883   -2.3763    4.0494 H   0  0  0  0  0  0  0  0  0  0  0  0
    4.2513   -2.0952    3.0758 H   0  0  0  0  0  0  0  0  0  0  0  0
    4.0549    0.1466    4.6370 H   0  0  0  0  0  0  0  0  0  0  0  0
    5.2689   -0.6774    5.6080 H   0  0  0  0  0  0  0  0  0  0  0  0
    2.5525   -1.6894    4.6916 H   0  0  0  0  0  0  0  0  0  0  0  0
    3.7180   -2.7306    5.5645 H   0  0  0  0  0  0  0  0  0  0  0  0
    3.2850   -0.2668    7.1213 H   0  0  0  0  0  0  0  0  0  0  0  0
    1.0792    0.0906    8.2920 H   0  0  0  0  0  0  0  0  0  0  0  0
    0.7774   -1.5482    9.0924 H   0  0  0  0  0  0  0  0  0  0  0  0
    0.0847   -2.7951    7.1559 H   0  0  0  0  0  0  0  0  0  0  0  0
    0.9322   -3.3409    5.8608 H   0  0  0  0  0  0  0  0  0  0  0  0
    5.6505   -1.5918    0.3336 N   0  0  0  0  0  0  0  0  0  0  0  0
    6.2259   -2.2004   -0.8546 C   0  0  2  0  0  0  0  0  0  0  0  0
    5.8130   -1.3051   -1.9451 C   0  0  0  0  0  0  0  0  0  0  0  0
    4.9610   -0.3922   -1.5517 O   0  0  0  0  0  0  0  0  0  0  0  0
    6.1303   -3.6394   -1.0425 C   0  0  0  0  0  0  0  0  0  0  0  0
    4.8006   -4.6526   -1.2705 S   0  0  0  0  0  0  0  0  0  0  0  0
    4.7365   -1.1483    0.4005 H   0  0  0  0  0  0  0  0  0  0  0  0
    7.3766   -2.0200   -0.7407 H   0  0  0  0  0  0  0  0  0  0  0  0
    6.7169   -4.0470   -0.0837 H   0  0  0  0  0  0  0  0  0  0  0  0
    6.9892   -3.8756   -1.8034 H   0  0  0  0  0  0  0  0  0  0  0  0
    6.1651   -1.2649   -3.2719 N   0  0  0  0  0  0  0  0  0  0  0  0
    5.5334   -0.2256   -4.1005 C   0  0  2  0  0  0  0  0  0  0  0  0
    5.2315   -0.7491   -5.4270 C   0  0  0  0  0  0  0  0  0  0  0  0
    5.9251   -1.7592   -5.8178 O   0  0  0  0  0  0  0  0  0  0  0  0
    6.5039    0.9509   -4.1914 C   0  0  0  0  0  0  0  0  0  0  0  0
    5.8868    2.0463   -4.9596 C   0  0  0  0  0  0  0  0  0  0  0  0
    5.1857    2.9921   -4.1327 C   0  0  0  0  0  0  0  0  0  0  0  0
    5.9570    2.2111   -6.3158 C   0  0  0  0  0  0  0  0  0  0  0  0
    4.6038    4.0491   -4.7953 C   0  0  0  0  0  0  0  0  0  0  0  0
    5.3383    3.3100   -6.8847 C   0  0  0  0  0  0  0  0  0  0  0  0
    4.6667    4.2287   -6.1757 C   0  0  0  0  0  0  0  0  0  0  0  0
    4.0132    5.3598   -6.6470 O   0  0  0  0  0  0  0  0  0  0  0  0
    6.8461   -1.9533   -3.6414 H   0  0  0  0  0  0  0  0  0  0  0  0
    4.6591    0.1329   -3.5915 H   0  0  0  0  0  0  0  0  0  0  0  0
    6.8016    1.2587   -3.1651 H   0  0  0  0  0  0  0  0  0  0  0  0
    7.4708    0.6813   -4.7058 H   0  0  0  0  0  0  0  0  0  0  0  0
    5.1377    2.8403   -3.0672 H   0  0  0  0  0  0  0  0  0  0  0  0
    6.5038    1.4700   -6.8784 H   0  0  0  0  0  0  0  0  0  0  0  0
    4.0724    4.7699   -4.1574 H   0  0  0  0  0  0  0  0  0  0  0  0
    5.3842    3.4447   -7.9771 H   0  0  0  0  0  0  0  0  0  0  0  0
    3.5939    6.0538   -6.0499 H   0  0  0  0  0  0  0  0  0  0  0  0
    4.2631   -0.2915   -6.3462 N   0  0  0  0  0  0  0  0  0  0  0  0
    4.1724   -0.9684   -7.6092 C   0  0  2  0  0  0  0  0  0  0  0  0
    3.4381   -0.2935   -8.6649 C   0  0  0  0  0  0  0  0  0  0  0  0
    2.8984    0.8194   -8.4598 O   0  0  0  0  0  0  0  0  0  0  0  0
    3.4247   -2.2946   -7.3334 C   0  0  0  0  0  0  0  0  0  0  0  0
    3.6558    0.5071   -6.0378 H   0  0  0  0  0  0  0  0  0  0  0  0
    5.2082   -1.3118   -7.8735 H   0  0  0  0  0  0  0  0  0  0  0  0
    3.3632   -2.4734   -6.2353 H   0  0  0  0  0  0  0  0  0  0  0  0
    3.9839   -3.1642   -7.7587 H   0  0  0  0  0  0  0  0  0  0  0  0
    2.3866   -2.2748   -7.6939 H   0  0  0  0  0  0  0  0  0  0  0  0
    3.3619   -0.9567   -9.9419 N   0  0  0  0  0  0  0  0  0  0  0  0
    4.2202   -1.0565  -10.5624 H   0  0  0  0  0  0  0  0  0  0  0  0
    2.4416   -1.3475  -10.2722 H   0  0  0  0  0  0  0  0  0  0  0  0
    3.3901   -2.5389   -0.9042 H   0  0  0  0  0  0  0  0  0  0  0  0
    1.3262   -1.1659   -1.2178 H   0  0  0  0  0  0  0  0  0  0  0  0
   -0.7277   -2.0333   -0.2808 H   0  0  0  0  0  0  0  0  0  0  0  0
    0.1978   -3.6510    1.2220 H   0  0  0  0  0  0  0  0  0  0  0  0
    0.9442   -5.5092   -1.1158 H   0  0  0  0  0  0  0  0  0  0  0  0
    2.4085   -3.8943    1.0027 H   0  0  0  0  0  0  0  0  0  0  0  0
   -1.4941   -5.3492    0.8698 H   0  0  0  0  0  0  0  0  0  0  0  0
   -2.1458   -3.5785    1.7309 H   0  0  0  0  0  0  0  0  0  0  0  0
   -6.0648    0.1638   -0.2622 H   0  0  0  0  0  0  0  0  0  0  0  0
   -7.7066   -0.6444    0.6898 H   0  0  0  0  0  0  0  0  0  0  0  0
   -3.6806   -0.2499    3.6370 H   0  0  0  0  0  0  0  0  0  0  0  0
   -6.0413    1.1521    4.4334 H   0  0  0  0  0  0  0  0  0  0  0  0
    1.0413    3.7555   -0.0614 H   0  0  0  0  0  0  0  0  0  0  0  0
   -1.1118    1.9555    0.1806 H   0  0  0  0  0  0  0  0  0  0  0  0
  1  2  1  0
  1 11  1  1
  1 12  1  0
  1 13  1  0
  2  3  1  0
  2  7  1  0
  3  4  1  0
  3 10  1  0
  4  5  1  0
  4 14  1  0
  5  6  1  0
  5  9  1  0
  6  7  1  0
  6 15  1  0
  7  8  1  0
  8 16  1  6
  8 17  1  0
  8171  1  0
  9 19  1  0
  9 21  1  0
 10 18  1  1
 10 20  1  0
 10118  1  0
 23 38  1  0
 38 39  1  0
 38 46  1  0
 39 40  1  0
 39 44  1  0
 39 47  1  6
 40 41  1  0
 40 48  1  6
 40 49  1  0
 41 42  1  0
 41 50  1  1
 41 51  1  0
 42 43  1  0
 42 52  1  6
 42 53  1  0
 43 54  1  6
 43 55  1  0
 44 45  1  0
 44 57  1  0
 57 58  1  0
 57 65  1  0
 58 59  1  0
 58 61  1  0
 58 66  1  6
 59 60  1  0
 59 76  1  0
 61 62  1  0
 61 67  1  6
 61 68  1  0
 62 63  1  0
 62 69  1  6
 62 70  1  0
 63 64  1  0
 63 71  1  1
 63 72  1  0
 64 73  1  1
 64 74  1  0
 64 75  1  0
 78 97  1  0
 97 98  1  0
 97104  1  0
 98 99  1  0
 98101  1  0
 98105  1  6
 99100  1  0
 99113  1  0
101102  1  0
101106  1  1
101107  1  0
102103  1  0
102108  1  6
102109  1  0
103110  1  6
103111  1  0
199207  1  0
207208  1  0
207209  1  0
 22 21  1  0
 23 22  1  0
 24 23  2  0
 25 22  1  0
 26 25  1  0
 27 26  1  0
 28 26  2  0
 29 27  2  0
 30 28  1  0
 30 29  1  0
 31 21  1  0
 22 32  1  6
 33 25  1  0
 34 25  1  0
 35 28  1  0
 36 29  1  0
 37 30  1  0
 56 43  1  0
 77 76  1  0
 78 77  1  0
 79 78  2  0
 80 77  1  0
 81 80  1  0
 82 81  2  0
 83 81  1  0
 84 82  1  0
 85 83  2  0
 86 85  1  0
 86 84  2  0
 87 86  1  0
 88 76  1  0
 77 89  1  6
 90 80  1  0
 91 80  1  0
 92 82  1  0
 93 83  1  0
 94 84  1  0
 95 85  1  0
 96 87  1  0
112103  1  0
114113  1  0
115114  1  0
116115  2  0
117114  1  0
118117  1  0
119113  1  0
114120  1  1
121117  1  0
122117  1  0
123115  1  0
124123  1  0
125124  1  0
126125  2  0
127124  1  0
128127  1  0
129127  1  0
130128  1  0
131123  1  0
124132  1  6
127133  1  1
134128  1  0
135128  1  0
136129  1  0
137129  1  0
138129  1  0
139130  1  0
140130  1  0
141130  1  0
142125  1  0
143142  1  0
144143  1  0
145144  2  0
146143  1  0
147146  1  0
148147  1  0
149148  1  0
150149  1  0
151150  1  0
152150  2  0
153142  1  0
143154  1  1
155146  1  0
156146  1  0
157147  1  0
158147  1  0
159148  1  0
160148  1  0
161149  1  0
162151  1  0
163151  1  0
164152  1  0
165152  1  0
166144  1  0
167166  1  0
168167  1  0
169168  2  0
170167  1  0
171170  1  0
172166  1  0
167173  1  1
174170  1  0
175170  1  0
176168  1  0
177176  1  0
178177  1  0
179178  2  0
180177  1  0
181180  1  0
182181  2  0
183181  1  0
184182  1  0
185183  2  0
186185  1  0
186184  2  0
187186  1  0
188176  1  0
177189  1  1
190180  1  0
191180  1  0
192182  1  0
193183  1  0
194184  1  0
195185  1  0
196187  1  0
197178  1  0
198197  1  0
199198  1  0
200199  2  0
201198  1  0
202197  1  0
198203  1  6
204201  1  0
205201  1  0
206201  1  0
  2210  1  6
  3211  1  6
  4212  1  0
  5213  1  0
  6214  1  0
  7215  1  0
  9216  1  0
 19217  1  0
 44218  1  0
 45219  1  0
 59220  1  0
 60221  1  0
 99222  1  0
100223  1  0
M  CHG  3  43   1 103   1 152   1
M  END
$$$$
BP70
     RDKit          3D

223228  0  0  0  0  0  0  0  0999 V2000
   -0.1645   -2.1258    5.2478 C   0  0  2  0  0  0  0  0  0  0  0  0
    0.1653   -1.8837    3.7818 C   0  0  1  0  0  0  0  0  0  0  0  0
    1.5983   -2.2266    3.5138 C   0  0  1  0  0  0  0  0  0  0  0  0
    1.9257   -3.0701    2.3732 C   0  0  0  0  0  0  0  0  0  0  0  0
    0.7728   -3.7790    1.7050 C   0  0  0  0  0  0  0  0  0  0  0  0
   -0.3752   -2.8163    1.5649 C   0  0  0  0  0  0  0  0  0  0  0  0
   -0.8807   -2.5017    2.9572 C   0  0  0  0  0  0  0  0  0  0  0  0
   -2.0899   -1.6228    2.8440 C   0  0  2  0  0  0  0  0  0  0  0  0
    1.2778   -4.0625    0.2477 C   0  0  0  0  0  0  0  0  0  0  0  0
    2.4032   -0.9836    3.6334 C   0  0  1  0  0  0  0  0  0  0  0  0
   -0.2002   -3.2478    5.3498 H   0  0  0  0  0  0  0  0  0  0  0  0
   -1.1427   -1.7458    5.5530 H   0  0  0  0  0  0  0  0  0  0  0  0
    0.6572   -1.8127    5.9089 H   0  0  0  0  0  0  0  0  0  0  0  0
    2.5438   -2.6005    1.5904 H   0  0  0  0  0  0  0  0  0  0  0  0
    0.0125   -1.9111    1.0912 H   0  0  0  0  0  0  0  0  0  0  0  0
   -2.8432   -2.0119    3.5813 H   0  0  0  0  0  0  0  0  0  0  0  0
   -2.5708   -1.6420    1.8654 H   0  0  0  0  0  0  0  0  0  0  0  0
    1.6656   -0.1582    3.9539 H   0  0  0  0  0  0  0  0  0  0  0  0
    0.4516   -5.1538   -0.1406 O   0  0  0  0  0  0  0  0  0  0  0  0
    3.0466   -1.0148    4.5877 H   0  0  0  0  0  0  0  0  0  0  0  0
    2.6527   -4.3683    0.2717 N   0  0  0  0  0  0  0  0  0  0  0  0
    3.5542   -3.9541   -0.7224 C   0  0  2  0  0  0  0  0  0  0  0  0
    3.5291   -4.4470   -2.0818 C   0  0  0  0  0  0  0  0  0  0  0  0
    4.3896   -3.9326   -2.8872 O   0  0  0  0  0  0  0  0  0  0  0  0
    4.9587   -4.1374   -0.0810 C   0  0  0  0  0  0  0  0  0  0  0  0
    6.0162   -3.7460   -1.0023 C   0  0  0  0  0  0  0  0  0  0  0  0
    6.7133   -4.4649   -1.9015 N   0  0  0  0  0  0  0  0  0  0  0  0
    6.4953   -2.4387   -1.1142 C   0  0  0  0  0  0  0  0  0  0  0  0
    7.5724   -3.6396   -2.5316 C   0  0  0  0  0  0  0  0  0  0  0  0
    7.4564   -2.3788   -2.0588 N   0  0  0  0  0  0  0  0  0  0  0  0
    2.7496   -5.4247    0.3757 H   0  0  0  0  0  0  0  0  0  0  0  0
    3.5213   -2.8058   -0.8529 H   0  0  0  0  0  0  0  0  0  0  0  0
    4.9107   -3.4340    0.8020 H   0  0  0  0  0  0  0  0  0  0  0  0
    5.0360   -5.1485    0.3233 H   0  0  0  0  0  0  0  0  0  0  0  0
    6.1604   -1.5651   -0.5327 H   0  0  0  0  0  0  0  0  0  0  0  0
    8.2782   -3.9310   -3.3272 H   0  0  0  0  0  0  0  0  0  0  0  0
    7.9593   -1.5111   -2.3270 H   0  0  0  0  0  0  0  0  0  0  0  0
    2.7233   -5.4134   -2.7284 N   0  0  0  0  0  0  0  0  0  0  0  0
    2.8825   -5.7834   -4.1224 C   0  0  1  0  0  0  0  0  0  0  0  0
    2.9205   -7.2713   -4.2393 C   0  0  2  0  0  0  0  0  0  0  0  0
    4.0583   -7.8832   -3.4690 C   0  0  2  0  0  0  0  0  0  0  0  0
    4.0241   -9.3782   -3.6541 C   0  0  1  0  0  0  0  0  0  0  0  0
    5.1799   -9.8983   -2.8705 N   0  0  2  0  0  0  0  0  0  0  0  0
    1.6830   -5.2746   -4.9802 C   0  0  0  0  0  0  0  0  0  0  0  0
    0.5750   -5.8566   -4.3950 O   0  0  0  0  0  0  0  0  0  0  0  0
    2.0057   -5.8666   -2.1762 H   0  0  0  0  0  0  0  0  0  0  0  0
    3.7994   -5.2686   -4.5014 H   0  0  0  0  0  0  0  0  0  0  0  0
    2.9358   -7.5910   -5.3200 H   0  0  0  0  0  0  0  0  0  0  0  0
    1.9749   -7.6915   -3.8062 H   0  0  0  0  0  0  0  0  0  0  0  0
    3.8336   -7.7187   -2.3794 H   0  0  0  0  0  0  0  0  0  0  0  0
    5.0487   -7.5316   -3.7592 H   0  0  0  0  0  0  0  0  0  0  0  0
    3.1032   -9.8281   -3.2104 H   0  0  0  0  0  0  0  0  0  0  0  0
    4.2119   -9.6995   -4.6894 H   0  0  0  0  0  0  0  0  0  0  0  0
    5.2927   -9.2894   -2.0037 H   0  0  0  0  0  0  0  0  0  0  0  0
    6.0462   -9.8528   -3.4813 H   0  0  0  0  0  0  0  0  0  0  0  0
    4.9854  -10.9113   -2.5884 H   0  0  0  0  0  0  0  0  0  0  0  0
    1.7112   -3.9242   -5.1601 N   0  0  0  0  0  0  0  0  0  0  0  0
    0.7772   -3.0731   -5.7149 C   0  0  2  0  0  0  0  0  0  0  0  0
   -0.4749   -2.8581   -4.8372 C   0  0  0  0  0  0  0  0  0  0  0  0
   -1.1012   -4.0974   -4.7372 O   0  0  0  0  0  0  0  0  0  0  0  0
    0.2663   -3.4503   -7.0922 C   0  0  2  0  0  0  0  0  0  0  0  0
    1.3554   -3.5212   -8.1392 C   0  0  1  0  0  0  0  0  0  0  0  0
    2.0824   -2.2444   -8.3654 C   0  0  1  0  0  0  0  0  0  0  0  0
    3.1660   -2.3897   -9.4434 C   0  0  2  0  0  0  0  0  0  0  0  0
    2.3747   -3.4120   -4.5613 H   0  0  0  0  0  0  0  0  0  0  0  0
    1.2114   -2.0572   -5.8081 H   0  0  0  0  0  0  0  0  0  0  0  0
   -0.3588   -2.5664   -7.4155 H   0  0  0  0  0  0  0  0  0  0  0  0
   -0.4196   -4.2923   -7.0783 H   0  0  0  0  0  0  0  0  0  0  0  0
    2.1304   -4.2868   -7.8276 H   0  0  0  0  0  0  0  0  0  0  0  0
    0.9399   -3.8520   -9.1260 H   0  0  0  0  0  0  0  0  0  0  0  0
    1.3877   -1.4331   -8.7160 H   0  0  0  0  0  0  0  0  0  0  0  0
    2.5243   -1.8668   -7.4329 H   0  0  0  0  0  0  0  0  0  0  0  0
    3.7591   -3.3058   -9.2294 H   0  0  0  0  0  0  0  0  0  0  0  0
    3.7860   -1.4855   -9.5219 H   0  0  0  0  0  0  0  0  0  0  0  0
    2.5935   -2.6139  -10.3797 H   0  0  0  0  0  0  0  0  0  0  0  0
   -1.3363   -1.8839   -5.3280 N   0  0  0  0  0  0  0  0  0  0  0  0
   -1.0696   -0.5361   -5.4765 C   0  0  2  0  0  0  0  0  0  0  0  0
   -0.9158    0.3352   -4.2762 C   0  0  0  0  0  0  0  0  0  0  0  0
   -0.6943    1.5501   -4.4964 O   0  0  0  0  0  0  0  0  0  0  0  0
   -2.2061    0.0631   -6.3579 C   0  0  0  0  0  0  0  0  0  0  0  0
   -3.5330   -0.1201   -5.7345 C   0  0  0  0  0  0  0  0  0  0  0  0
   -4.0104    0.7774   -4.7756 C   0  0  0  0  0  0  0  0  0  0  0  0
   -4.3937   -1.1502   -6.0532 C   0  0  0  0  0  0  0  0  0  0  0  0
   -5.2519    0.6237   -4.2040 C   0  0  0  0  0  0  0  0  0  0  0  0
   -5.6380   -1.3163   -5.4906 C   0  0  0  0  0  0  0  0  0  0  0  0
   -6.0998   -0.4252   -4.5448 C   0  0  0  0  0  0  0  0  0  0  0  0
   -7.3535   -0.5703   -3.9602 O   0  0  0  0  0  0  0  0  0  0  0  0
   -2.3642   -2.1296   -5.2337 H   0  0  0  0  0  0  0  0  0  0  0  0
   -0.1553   -0.3991   -6.1258 H   0  0  0  0  0  0  0  0  0  0  0  0
   -2.0541    1.1554   -6.4396 H   0  0  0  0  0  0  0  0  0  0  0  0
   -2.1922   -0.4326   -7.3341 H   0  0  0  0  0  0  0  0  0  0  0  0
   -3.4297    1.6224   -4.4450 H   0  0  0  0  0  0  0  0  0  0  0  0
   -4.1201   -1.9077   -6.7984 H   0  0  0  0  0  0  0  0  0  0  0  0
   -5.6339    1.3184   -3.4448 H   0  0  0  0  0  0  0  0  0  0  0  0
   -6.3073   -2.1256   -5.7509 H   0  0  0  0  0  0  0  0  0  0  0  0
   -7.5753   -0.1304   -3.0606 H   0  0  0  0  0  0  0  0  0  0  0  0
   -0.9910   -0.0464   -2.9424 N   0  0  0  0  0  0  0  0  0  0  0  0
   -0.9589    0.8209   -1.7544 C   0  0  2  0  0  0  0  0  0  0  0  0
    0.4962    0.6638   -1.2181 C   0  0  0  0  0  0  0  0  0  0  0  0
    0.6299   -0.6700   -1.0292 O   0  0  0  0  0  0  0  0  0  0  0  0
   -1.9034    0.1441   -0.7490 C   0  0  2  0  0  0  0  0  0  0  0  0
   -3.2660    0.0157   -1.4143 C   0  0  1  0  0  0  0  0  0  0  0  0
   -4.1939   -0.6684   -0.5127 N   0  0  2  0  0  0  0  0  0  0  0  0
   -1.0819   -1.0452   -2.7402 H   0  0  0  0  0  0  0  0  0  0  0  0
   -1.1711    1.8309   -1.9972 H   0  0  0  0  0  0  0  0  0  0  0  0
   -2.0261    0.8540    0.0856 H   0  0  0  0  0  0  0  0  0  0  0  0
   -1.5503   -0.8522   -0.5101 H   0  0  0  0  0  0  0  0  0  0  0  0
   -3.6736    1.0002   -1.7227 H   0  0  0  0  0  0  0  0  0  0  0  0
   -3.2051   -0.6045   -2.3418 H   0  0  0  0  0  0  0  0  0  0  0  0
   -5.0932   -0.9096   -1.0863 H   0  0  0  0  0  0  0  0  0  0  0  0
   -4.4770   -0.0832    0.3092 H   0  0  0  0  0  0  0  0  0  0  0  0
   -3.7692   -1.6097   -0.2019 H   0  0  0  0  0  0  0  0  0  0  0  0
    0.8653    1.5574   -0.2203 N   0  0  0  0  0  0  0  0  0  0  0  0
    1.6100    1.1289    0.9439 C   0  0  2  0  0  0  0  0  0  0  0  0
    1.9873    2.3330    1.7009 C   0  0  0  0  0  0  0  0  0  0  0  0
    1.5712    3.4277    1.1915 O   0  0  0  0  0  0  0  0  0  0  0  0
    2.6606    0.1289    0.8129 C   0  0  0  0  0  0  0  0  0  0  0  0
    3.4511   -0.4116    2.3480 S   0  0  0  0  0  0  0  0  0  0  0  0
    1.0438    2.5295   -0.4950 H   0  0  0  0  0  0  0  0  0  0  0  0
    0.7716    0.6532    1.5969 H   0  0  0  0  0  0  0  0  0  0  0  0
    2.3307   -0.7548    0.2651 H   0  0  0  0  0  0  0  0  0  0  0  0
    3.5427    0.5065    0.1802 H   0  0  0  0  0  0  0  0  0  0  0  0
    2.7198    2.5056    2.8850 N   0  0  0  0  0  0  0  0  0  0  0  0
    2.8962    3.8095    3.5596 C   0  0  2  0  0  0  0  0  0  0  0  0
    1.7937    3.8703    4.5806 C   0  0  0  0  0  0  0  0  0  0  0  0
    1.2839    4.9325    4.9311 O   0  0  0  0  0  0  0  0  0  0  0  0
    2.8743    5.0224    2.7311 C   0  0  2  0  0  0  0  0  0  0  0  0
    3.9349    5.1478    1.6795 C   0  0  0  0  0  0  0  0  0  0  0  0
    3.1576    6.1934    3.7126 C   0  0  0  0  0  0  0  0  0  0  0  0
    3.7524    6.4525    0.9139 C   0  0  0  0  0  0  0  0  0  0  0  0
    3.1631    1.7189    3.3162 H   0  0  0  0  0  0  0  0  0  0  0  0
    3.8627    3.8134    4.1080 H   0  0  0  0  0  0  0  0  0  0  0  0
    1.9030    5.3228    2.2760 H   0  0  0  0  0  0  0  0  0  0  0  0
    4.0391    4.3548    0.9609 H   0  0  0  0  0  0  0  0  0  0  0  0
    4.9563    5.2596    2.1565 H   0  0  0  0  0  0  0  0  0  0  0  0
    2.2460    6.8035    3.8815 H   0  0  0  0  0  0  0  0  0  0  0  0
    3.4811    5.8411    4.6972 H   0  0  0  0  0  0  0  0  0  0  0  0
    3.9184    6.8754    3.3352 H   0  0  0  0  0  0  0  0  0  0  0  0
    3.4920    6.2458   -0.1596 H   0  0  0  0  0  0  0  0  0  0  0  0
    4.6716    7.0668    0.8927 H   0  0  0  0  0  0  0  0  0  0  0  0
    2.8720    6.9975    1.3113 H   0  0  0  0  0  0  0  0  0  0  0  0
    1.3069    2.6800    5.1999 N   0  0  0  0  0  0  0  0  0  0  0  0
   -0.0100    2.6647    5.9095 C   0  0  2  0  0  0  0  0  0  0  0  0
   -0.9954    2.6705    4.8161 C   0  0  0  0  0  0  0  0  0  0  0  0
   -0.4442    2.8300    3.6626 O   0  0  0  0  0  0  0  0  0  0  0  0
   -0.1693    3.6014    7.0039 C   0  0  0  0  0  0  0  0  0  0  0  0
    0.7640    3.4001    8.1779 C   0  0  0  0  0  0  0  0  0  0  0  0
    0.5337    2.0688    8.8640 C   0  0  0  0  0  0  0  0  0  0  0  0
    1.4725    1.9657    9.9621 N   0  0  0  0  0  0  0  0  0  0  0  0
    1.4251    0.8449   10.8388 C   0  0  0  0  0  0  0  0  0  0  0  0
    2.3051    0.6759   11.9316 N   0  0  0  0  0  0  0  0  0  0  0  0
    0.4994   -0.0610   10.5977 N   0  0  0  0  0  0  0  0  0  0  0  0
    1.9184    1.8740    5.1467 H   0  0  0  0  0  0  0  0  0  0  0  0
   -0.0151    1.6175    6.3516 H   0  0  0  0  0  0  0  0  0  0  0  0
   -1.2503    3.5550    7.3772 H   0  0  0  0  0  0  0  0  0  0  0  0
   -0.0589    4.6490    6.6965 H   0  0  0  0  0  0  0  0  0  0  0  0
    0.5563    4.2063    8.9127 H   0  0  0  0  0  0  0  0  0  0  0  0
    1.8348    3.4634    7.9090 H   0  0  0  0  0  0  0  0  0  0  0  0
    0.7919    1.2149    8.1678 H   0  0  0  0  0  0  0  0  0  0  0  0
   -0.4708    1.9803    9.3110 H   0  0  0  0  0  0  0  0  0  0  0  0
    2.1906    2.7062   10.1165 H   0  0  0  0  0  0  0  0  0  0  0  0
    2.6557    1.4565   12.5282 H   0  0  0  0  0  0  0  0  0  0  0  0
    2.6198   -0.3181   12.1480 H   0  0  0  0  0  0  0  0  0  0  0  0
   -0.1666    0.0185    9.8194 H   0  0  0  0  0  0  0  0  0  0  0  0
    0.4250   -0.8978   11.2125 H   0  0  0  0  0  0  0  0  0  0  0  0
   -2.3886    2.5373    4.7609 N   0  0  0  0  0  0  0  0  0  0  0  0
   -2.9508    2.5723    3.4196 C   0  0  2  0  0  0  0  0  0  0  0  0
   -4.1591    3.4157    3.2590 C   0  0  0  0  0  0  0  0  0  0  0  0
   -4.9279    3.7553    4.1791 O   0  0  0  0  0  0  0  0  0  0  0  0
   -3.3208    1.0914    3.1467 C   0  0  0  0  0  0  0  0  0  0  0  0
   -1.7972    0.1217    3.2492 S   0  0  0  0  0  0  0  0  0  0  0  0
   -2.8830    2.4345    5.6360 H   0  0  0  0  0  0  0  0  0  0  0  0
   -2.2076    2.7638    2.6243 H   0  0  0  0  0  0  0  0  0  0  0  0
   -4.1250    0.7464    3.8162 H   0  0  0  0  0  0  0  0  0  0  0  0
   -3.5961    1.1110    2.0665 H   0  0  0  0  0  0  0  0  0  0  0  0
   -4.3824    3.8376    1.8844 N   0  0  0  0  0  0  0  0  0  0  0  0
   -5.5016    4.6409    1.4696 C   0  0  2  0  0  0  0  0  0  0  0  0
   -5.6210    4.5316    0.0047 C   0  0  0  0  0  0  0  0  0  0  0  0
   -4.6892    3.9201   -0.6015 O   0  0  0  0  0  0  0  0  0  0  0  0
   -5.1794    6.1421    1.7193 C   0  0  0  0  0  0  0  0  0  0  0  0
   -3.9973    6.6127    0.9906 C   0  0  0  0  0  0  0  0  0  0  0  0
   -2.7623    6.5267    1.6237 C   0  0  0  0  0  0  0  0  0  0  0  0
   -4.0345    7.1588   -0.2793 C   0  0  0  0  0  0  0  0  0  0  0  0
   -1.5913    6.9720    1.0198 C   0  0  0  0  0  0  0  0  0  0  0  0
   -2.8729    7.6158   -0.9167 C   0  0  0  0  0  0  0  0  0  0  0  0
   -1.6680    7.5137   -0.2544 C   0  0  0  0  0  0  0  0  0  0  0  0
   -0.4616    7.9550   -0.8391 O   0  0  0  0  0  0  0  0  0  0  0  0
   -3.6699    3.5387    1.1497 H   0  0  0  0  0  0  0  0  0  0  0  0
   -6.4247    4.4430    2.0542 H   0  0  0  0  0  0  0  0  0  0  0  0
   -6.1051    6.6977    1.4356 H   0  0  0  0  0  0  0  0  0  0  0  0
   -5.0283    6.3251    2.8038 H   0  0  0  0  0  0  0  0  0  0  0  0
   -2.6336    6.1118    2.6156 H   0  0  0  0  0  0  0  0  0  0  0  0
   -4.9785    7.2420   -0.8127 H   0  0  0  0  0  0  0  0  0  0  0  0
   -0.6400    6.8927    1.5363 H   0  0  0  0  0  0  0  0  0  0  0  0
   -2.9224    8.0450   -1.9251 H   0  0  0  0  0  0  0  0  0  0  0  0
    0.0765    8.6980   -0.3840 H   0  0  0  0  0  0  0  0  0  0  0  0
   -6.6827    5.0521   -0.7718 N   0  0  0  0  0  0  0  0  0  0  0  0
   -6.6220    4.8657   -2.2077 C   0  0  2  0  0  0  0  0  0  0  0  0
   -7.0115    6.1165   -2.9277 C   0  0  0  0  0  0  0  0  0  0  0  0
   -7.3250    7.1377   -2.2625 O   0  0  0  0  0  0  0  0  0  0  0  0
   -7.5705    3.7882   -2.7055 C   0  0  0  0  0  0  0  0  0  0  0  0
   -7.4519    5.5418   -0.2685 H   0  0  0  0  0  0  0  0  0  0  0  0
   -5.6140    4.5224   -2.5149 H   0  0  0  0  0  0  0  0  0  0  0  0
   -7.1145    3.2786   -3.6127 H   0  0  0  0  0  0  0  0  0  0  0  0
   -8.5134    4.2176   -3.0921 H   0  0  0  0  0  0  0  0  0  0  0  0
   -7.8008    3.0243   -1.9612 H   0  0  0  0  0  0  0  0  0  0  0  0
   -7.0331    6.1686   -4.3561 N   0  0  0  0  0  0  0  0  0  0  0  0
   -7.9112    5.9173   -4.8932 H   0  0  0  0  0  0  0  0  0  0  0  0
   -6.1634    6.4637   -4.8354 H   0  0  0  0  0  0  0  0  0  0  0  0
    0.0445   -0.7577    3.6762 H   0  0  0  0  0  0  0  0  0  0  0  0
    1.9131   -2.8425    4.4503 H   0  0  0  0  0  0  0  0  0  0  0  0
    2.6045   -3.9426    2.6933 H   0  0  0  0  0  0  0  0  0  0  0  0
    0.4703   -4.7126    2.1876 H   0  0  0  0  0  0  0  0  0  0  0  0
   -1.2018   -3.2770    0.9586 H   0  0  0  0  0  0  0  0  0  0  0  0
   -1.1455   -3.5104    3.4016 H   0  0  0  0  0  0  0  0  0  0  0  0
    1.0796   -3.2191   -0.4149 H   0  0  0  0  0  0  0  0  0  0  0  0
    0.9252   -5.9615    0.1866 H   0  0  0  0  0  0  0  0  0  0  0  0
    1.8449   -5.8951   -5.9221 H   0  0  0  0  0  0  0  0  0  0  0  0
    0.3159   -6.7461   -4.7594 H   0  0  0  0  0  0  0  0  0  0  0  0
   -0.0439   -2.5753   -3.8471 H   0  0  0  0  0  0  0  0  0  0  0  0
   -2.0765   -3.9657   -4.6430 H   0  0  0  0  0  0  0  0  0  0  0  0
    1.1619    0.9140   -2.1232 H   0  0  0  0  0  0  0  0  0  0  0  0
    0.8899   -1.0988   -1.8792 H   0  0  0  0  0  0  0  0  0  0  0  0
  1  2  1  0
  1 11  1  6
  1 12  1  0
  1 13  1  0
  2  3  1  0
  2  7  1  0
  3  4  1  0
  3 10  1  0
  4  5  1  0
  4 14  1  0
  5  6  1  0
  5  9  1  0
  6  7  1  0
  6 15  1  0
  7  8  1  0
  8 16  1  1
  8 17  1  0
  8171  1  0
  9 19  1  0
  9 21  1  0
 10 18  1  1
 10 20  1  0
 10118  1  0
 23 38  1  0
 38 39  1  0
 38 46  1  0
 39 40  1  0
 39 44  1  0
 39 47  1  6
 40 41  1  0
 40 48  1  6
 40 49  1  0
 41 42  1  0
 41 50  1  1
 41 51  1  0
 42 43  1  0
 42 52  1  1
 42 53  1  0
 43 54  1  1
 43 55  1  0
 44 45  1  0
 44 57  1  0
 57 58  1  0
 57 65  1  0
 58 59  1  0
 58 61  1  0
 58 66  1  6
 59 60  1  0
 59 76  1  0
 61 62  1  0
 61 67  1  6
 61 68  1  0
 62 63  1  0
 62 69  1  1
 62 70  1  0
 63 64  1  0
 63 71  1  6
 63 72  1  0
 64 73  1  1
 64 74  1  0
 64 75  1  0
 78 97  1  0
 97 98  1  0
 97104  1  0
 98 99  1  0
 98101  1  0
 98105  1  6
 99100  1  0
 99113  1  0
101102  1  0
101106  1  1
101107  1  0
102103  1  0
102108  1  6
102109  1  0
103110  1  6
103111  1  0
199207  1  0
207208  1  0
207209  1  0
 22 21  1  0
 23 22  1  0
 24 23  2  0
 25 22  1  0
 26 25  1  0
 27 26  1  0
 28 26  2  0
 29 27  2  0
 30 28  1  0
 30 29  1  0
 31 21  1  0
 22 32  1  6
 33 25  1  0
 34 25  1  0
 35 28  1  0
 36 29  1  0
 37 30  1  0
 56 43  1  0
 77 76  1  0
 78 77  1  0
 79 78  2  0
 80 77  1  0
 81 80  1  0
 82 81  2  0
 83 81  1  0
 84 82  1  0
 85 83  2  0
 86 85  1  0
 86 84  2  0
 87 86  1  0
 88 76  1  0
 77 89  1  6
 90 80  1  0
 91 80  1  0
 92 82  1  0
 93 83  1  0
 94 84  1  0
 95 85  1  0
 96 87  1  0
112103  1  0
114113  1  0
115114  1  0
116115  2  0
117114  1  0
118117  1  0
119113  1  0
114120  1  1
121117  1  0
122117  1  0
123115  1  0
124123  1  0
125124  1  0
126125  2  0
127124  1  0
128127  1  0
129127  1  0
130128  1  0
131123  1  0
124132  1  1
127133  1  6
134128  1  0
135128  1  0
136129  1  0
137129  1  0
138129  1  0
139130  1  0
140130  1  0
141130  1  0
142125  1  0
143142  1  0
144143  1  0
145144  2  0
146143  1  0
147146  1  0
148147  1  0
149148  1  0
150149  1  0
151150  1  0
152150  2  0
153142  1  0
143154  1  1
155146  1  0
156146  1  0
157147  1  0
158147  1  0
159148  1  0
160148  1  0
161149  1  0
162151  1  0
163151  1  0
164152  1  0
165152  1  0
166144  1  0
167166  1  0
168167  1  0
169168  2  0
170167  1  0
171170  1  0
172166  1  0
167173  1  6
174170  1  0
175170  1  0
176168  1  0
177176  1  0
178177  1  0
179178  2  0
180177  1  0
181180  1  0
182181  2  0
183181  1  0
184182  1  0
185183  2  0
186185  1  0
186184  2  0
187186  1  0
188176  1  0
177189  1  1
190180  1  0
191180  1  0
192182  1  0
193183  1  0
194184  1  0
195185  1  0
196187  1  0
197178  1  0
198197  1  0
199198  1  0
200199  2  0
201198  1  0
202197  1  0
198203  1  1
204201  1  0
205201  1  0
206201  1  0
  2210  1  1
  3211  1  1
  4212  1  0
  5213  1  0
  6214  1  0
  7215  1  0
  9216  1  0
 19217  1  0
 44218  1  0
 45219  1  0
 59220  1  0
 60221  1  0
 99222  1  0
100223  1  0
M  CHG  3  43   1 103   1 152   1
M  END
$$$$
BP70
     RDKit          3D

223228  0  0  0  0  0  0  0  0999 V2000
    3.7355    0.9596    2.5442 C   0  0  2  0  0  0  0  0  0  0  0  0
    3.5204   -0.2138    1.6295 C   0  0  1  0  0  0  0  0  0  0  0  0
    2.0528   -0.1595    1.1256 C   0  0  1  0  0  0  0  0  0  0  0  0
    1.9416   -0.3260   -0.3484 C   0  0  0  0  0  0  0  0  0  0  0  0
    2.8217   -1.3195   -1.0145 C   0  0  0  0  0  0  0  0  0  0  0  0
    4.1550   -1.4971   -0.3279 C   0  0  0  0  0  0  0  0  0  0  0  0
    4.4187   -0.2131    0.4449 C   0  0  0  0  0  0  0  0  0  0  0  0
    5.8519    0.0488    0.7440 C   0  0  2  0  0  0  0  0  0  0  0  0
    2.0810   -2.6672   -1.2313 C   0  0  0  0  0  0  0  0  0  0  0  0
    1.2495   -1.0922    1.9550 C   0  0  1  0  0  0  0  0  0  0  0  0
    4.6547    0.8152    3.1554 H   0  0  0  0  0  0  0  0  0  0  0  0
    2.8923    1.0351    3.2946 H   0  0  0  0  0  0  0  0  0  0  0  0
    3.7022    1.9234    2.0095 H   0  0  0  0  0  0  0  0  0  0  0  0
    0.8861   -0.6675   -0.5447 H   0  0  0  0  0  0  0  0  0  0  0  0
    4.1784   -2.3587    0.3649 H   0  0  0  0  0  0  0  0  0  0  0  0
    6.3499   -0.9198    0.9566 H   0  0  0  0  0  0  0  0  0  0  0  0
    5.9760    0.6945    1.6189 H   0  0  0  0  0  0  0  0  0  0  0  0
    1.4256   -2.1730    1.6173 H   0  0  0  0  0  0  0  0  0  0  0  0
    2.8684   -3.3167   -2.1819 O   0  0  0  0  0  0  0  0  0  0  0  0
    1.8284   -1.1384    2.9644 H   0  0  0  0  0  0  0  0  0  0  0  0
    0.8024   -2.2830   -1.6204 N   0  0  0  0  0  0  0  0  0  0  0  0
   -0.3234   -3.0571   -1.7739 C   0  0  2  0  0  0  0  0  0  0  0  0
   -0.5645   -4.0500   -0.6656 C   0  0  0  0  0  0  0  0  0  0  0  0
    0.2741   -4.3616    0.1808 O   0  0  0  0  0  0  0  0  0  0  0  0
   -0.6741   -3.6393   -3.1114 C   0  0  0  0  0  0  0  0  0  0  0  0
    0.2751   -4.5453   -3.7372 C   0  0  0  0  0  0  0  0  0  0  0  0
    0.2740   -5.8945   -3.5085 N   0  0  0  0  0  0  0  0  0  0  0  0
    1.2895   -4.3543   -4.6476 C   0  0  0  0  0  0  0  0  0  0  0  0
    1.2388   -6.4616   -4.2479 C   0  0  0  0  0  0  0  0  0  0  0  0
    1.8843   -5.5135   -4.9663 N   0  0  0  0  0  0  0  0  0  0  0  0
    0.8857   -1.5294   -2.3535 H   0  0  0  0  0  0  0  0  0  0  0  0
   -1.2122   -2.2975   -1.6350 H   0  0  0  0  0  0  0  0  0  0  0  0
   -0.9659   -2.8390   -3.8447 H   0  0  0  0  0  0  0  0  0  0  0  0
   -1.6622   -4.1766   -2.9450 H   0  0  0  0  0  0  0  0  0  0  0  0
    1.5746   -3.4044   -5.0586 H   0  0  0  0  0  0  0  0  0  0  0  0
    1.4307   -7.5390   -4.2256 H   0  0  0  0  0  0  0  0  0  0  0  0
    2.6605   -5.7397   -5.6017 H   0  0  0  0  0  0  0  0  0  0  0  0
   -1.8387   -4.7058   -0.5186 N   0  0  0  0  0  0  0  0  0  0  0  0
   -1.9959   -5.7361    0.5369 C   0  0  1  0  0  0  0  0  0  0  0  0
   -2.1892   -5.0307    1.8703 C   0  0  2  0  0  0  0  0  0  0  0  0
   -2.3000   -6.0395    2.9521 C   0  0  2  0  0  0  0  0  0  0  0  0
   -1.0594   -6.8937    3.0671 C   0  0  1  0  0  0  0  0  0  0  0  0
   -1.2804   -7.8436    4.2105 N   0  0  2  0  0  0  0  0  0  0  0  0
   -3.1804   -6.6103    0.1936 C   0  0  0  0  0  0  0  0  0  0  0  0
   -2.8810   -7.1711   -1.0612 O   0  0  0  0  0  0  0  0  0  0  0  0
   -2.5628   -4.4122   -1.1524 H   0  0  0  0  0  0  0  0  0  0  0  0
   -1.0519   -6.2836    0.6480 H   0  0  0  0  0  0  0  0  0  0  0  0
   -3.0290   -4.3205    1.8728 H   0  0  0  0  0  0  0  0  0  0  0  0
   -1.2838   -4.4168    2.0459 H   0  0  0  0  0  0  0  0  0  0  0  0
   -3.1408   -6.7261    2.8596 H   0  0  0  0  0  0  0  0  0  0  0  0
   -2.3934   -5.5200    3.9538 H   0  0  0  0  0  0  0  0  0  0  0  0
   -0.8814   -7.5400    2.1819 H   0  0  0  0  0  0  0  0  0  0  0  0
   -0.1492   -6.3232    3.2877 H   0  0  0  0  0  0  0  0  0  0  0  0
   -0.7017   -8.7247    4.0391 H   0  0  0  0  0  0  0  0  0  0  0  0
   -2.3138   -8.0546    4.2915 H   0  0  0  0  0  0  0  0  0  0  0  0
   -0.9293   -7.3333    5.0954 H   0  0  0  0  0  0  0  0  0  0  0  0
   -4.4163   -5.9248    0.2441 N   0  0  0  0  0  0  0  0  0  0  0  0
   -5.5465   -6.3664   -0.4194 C   0  0  2  0  0  0  0  0  0  0  0  0
   -6.6432   -5.2981   -0.1657 C   0  0  0  0  0  0  0  0  0  0  0  0
   -7.8286   -5.7358   -0.7806 O   0  0  0  0  0  0  0  0  0  0  0  0
   -6.2584   -7.6377   -0.1205 C   0  0  2  0  0  0  0  0  0  0  0  0
   -6.8628   -7.8300    1.2104 C   0  0  1  0  0  0  0  0  0  0  0  0
   -5.9681   -7.8877    2.4024 C   0  0  1  0  0  0  0  0  0  0  0  0
   -5.0161   -9.0646    2.3517 C   0  0  2  0  0  0  0  0  0  0  0  0
   -4.5811   -5.3476    1.0611 H   0  0  0  0  0  0  0  0  0  0  0  0
   -5.4330   -6.3431   -1.5488 H   0  0  0  0  0  0  0  0  0  0  0  0
   -5.6856   -8.5423   -0.4595 H   0  0  0  0  0  0  0  0  0  0  0  0
   -7.1371   -7.6518   -0.8537 H   0  0  0  0  0  0  0  0  0  0  0  0
   -7.6701   -7.0961    1.4427 H   0  0  0  0  0  0  0  0  0  0  0  0
   -7.4357   -8.8191    1.2375 H   0  0  0  0  0  0  0  0  0  0  0  0
   -5.4264   -6.9777    2.6190 H   0  0  0  0  0  0  0  0  0  0  0  0
   -6.6304   -8.0693    3.2877 H   0  0  0  0  0  0  0  0  0  0  0  0
   -4.6239   -9.2692    1.3390 H   0  0  0  0  0  0  0  0  0  0  0  0
   -5.5168   -9.9608    2.7893 H   0  0  0  0  0  0  0  0  0  0  0  0
   -4.1715   -8.8429    3.0187 H   0  0  0  0  0  0  0  0  0  0  0  0
   -6.2928   -3.9805   -0.4838 N   0  0  0  0  0  0  0  0  0  0  0  0
   -5.9834   -3.6333   -1.8405 C   0  0  2  0  0  0  0  0  0  0  0  0
   -5.7285   -2.1708   -1.8748 C   0  0  0  0  0  0  0  0  0  0  0  0
   -5.4283   -1.5196   -2.8888 O   0  0  0  0  0  0  0  0  0  0  0  0
   -7.0554   -3.9647   -2.8129 C   0  0  0  0  0  0  0  0  0  0  0  0
   -6.7184   -3.5757   -4.2014 C   0  0  0  0  0  0  0  0  0  0  0  0
   -7.1638   -2.3796   -4.7595 C   0  0  0  0  0  0  0  0  0  0  0  0
   -5.9417   -4.3650   -5.0253 C   0  0  0  0  0  0  0  0  0  0  0  0
   -6.8400   -2.0260   -6.0496 C   0  0  0  0  0  0  0  0  0  0  0  0
   -5.6150   -4.0154   -6.3184 C   0  0  0  0  0  0  0  0  0  0  0  0
   -6.0624   -2.8193   -6.8726 C   0  0  0  0  0  0  0  0  0  0  0  0
   -5.7458   -2.4555   -8.1606 O   0  0  0  0  0  0  0  0  0  0  0  0
   -7.1275   -3.3766   -0.2308 H   0  0  0  0  0  0  0  0  0  0  0  0
   -5.0084   -4.0953   -2.1738 H   0  0  0  0  0  0  0  0  0  0  0  0
   -7.3009   -5.0469   -2.8704 H   0  0  0  0  0  0  0  0  0  0  0  0
   -7.9846   -3.3816   -2.5500 H   0  0  0  0  0  0  0  0  0  0  0  0
   -7.7822   -1.6803   -4.2087 H   0  0  0  0  0  0  0  0  0  0  0  0
   -5.5557   -5.3245   -4.6418 H   0  0  0  0  0  0  0  0  0  0  0  0
   -7.1885   -1.0874   -6.5065 H   0  0  0  0  0  0  0  0  0  0  0  0
   -4.9975   -4.6903   -6.9190 H   0  0  0  0  0  0  0  0  0  0  0  0
   -6.0832   -3.0286   -8.9171 H   0  0  0  0  0  0  0  0  0  0  0  0
   -5.8107   -1.3530   -0.6805 N   0  0  0  0  0  0  0  0  0  0  0  0
   -5.6340    0.1284   -0.7875 C   0  0  2  0  0  0  0  0  0  0  0  0
   -4.4636    0.5405    0.0325 C   0  0  0  0  0  0  0  0  0  0  0  0
   -4.7511    0.1661    1.3603 O   0  0  0  0  0  0  0  0  0  0  0  0
   -6.9020    0.7756   -0.3162 C   0  0  2  0  0  0  0  0  0  0  0  0
   -7.0881    2.2230   -0.3254 C   0  0  1  0  0  0  0  0  0  0  0  0
   -6.2401    3.0689    0.4979 N   0  0  2  0  0  0  0  0  0  0  0  0
   -5.9761   -1.8402    0.1760 H   0  0  0  0  0  0  0  0  0  0  0  0
   -5.4512    0.4130   -1.8251 H   0  0  0  0  0  0  0  0  0  0  0  0
   -7.1498    0.3811    0.7442 H   0  0  0  0  0  0  0  0  0  0  0  0
   -7.7485    0.2620   -0.8989 H   0  0  0  0  0  0  0  0  0  0  0  0
   -7.0482    2.6009   -1.4008 H   0  0  0  0  0  0  0  0  0  0  0  0
   -8.1641    2.4059    0.0054 H   0  0  0  0  0  0  0  0  0  0  0  0
   -5.8671    2.5905    1.3543 H   0  0  0  0  0  0  0  0  0  0  0  0
   -6.8786    3.9031    0.8738 H   0  0  0  0  0  0  0  0  0  0  0  0
   -5.4767    3.5568   -0.0835 H   0  0  0  0  0  0  0  0  0  0  0  0
   -3.2912   -0.2250   -0.4227 N   0  0  0  0  0  0  0  0  0  0  0  0
   -2.1515    0.3541    0.4071 C   0  0  2  0  0  0  0  0  0  0  0  0
   -1.3000    1.1093   -0.4733 C   0  0  0  0  0  0  0  0  0  0  0  0
   -1.1711    0.7492   -1.6681 O   0  0  0  0  0  0  0  0  0  0  0  0
   -1.7313   -0.7668    1.2513 C   0  0  0  0  0  0  0  0  0  0  0  0
   -0.3972   -0.7386    2.3114 S   0  0  0  0  0  0  0  0  0  0  0  0
   -3.0976    0.0124   -1.4052 H   0  0  0  0  0  0  0  0  0  0  0  0
   -2.6876    1.0788    1.1114 H   0  0  0  0  0  0  0  0  0  0  0  0
   -1.7628   -1.7518    0.6042 H   0  0  0  0  0  0  0  0  0  0  0  0
   -2.6827   -1.0551    1.9079 H   0  0  0  0  0  0  0  0  0  0  0  0
   -0.5547    2.2916   -0.1554 N   0  0  0  0  0  0  0  0  0  0  0  0
    0.2167    3.0255   -1.1877 C   0  0  2  0  0  0  0  0  0  0  0  0
    1.0597    3.9606   -0.4556 C   0  0  0  0  0  0  0  0  0  0  0  0
    0.9347    4.0150    0.7879 O   0  0  0  0  0  0  0  0  0  0  0  0
   -0.8587    3.7200   -2.0391 C   0  0  2  0  0  0  0  0  0  0  0  0
   -0.3534    4.5375   -3.1531 C   0  0  0  0  0  0  0  0  0  0  0  0
   -1.8448    4.4895   -1.2156 C   0  0  0  0  0  0  0  0  0  0  0  0
   -1.6062    5.1118   -3.8653 C   0  0  0  0  0  0  0  0  0  0  0  0
   -0.6043    2.5804    0.8186 H   0  0  0  0  0  0  0  0  0  0  0  0
    0.7320    2.3877   -1.8884 H   0  0  0  0  0  0  0  0  0  0  0  0
   -1.4383    2.8744   -2.4894 H   0  0  0  0  0  0  0  0  0  0  0  0
    0.1613    3.9576   -3.9332 H   0  0  0  0  0  0  0  0  0  0  0  0
    0.1764    5.4699   -2.8398 H   0  0  0  0  0  0  0  0  0  0  0  0
   -1.6005    5.5722   -1.2173 H   0  0  0  0  0  0  0  0  0  0  0  0
   -1.9507    4.1225   -0.1985 H   0  0  0  0  0  0  0  0  0  0  0  0
   -2.8905    4.4619   -1.6453 H   0  0  0  0  0  0  0  0  0  0  0  0
   -2.1830    5.7151   -3.1464 H   0  0  0  0  0  0  0  0  0  0  0  0
   -2.2530    4.2981   -4.2457 H   0  0  0  0  0  0  0  0  0  0  0  0
   -1.2857    5.7347   -4.7133 H   0  0  0  0  0  0  0  0  0  0  0  0
    2.0442    4.8478   -0.9813 N   0  0  0  0  0  0  0  0  0  0  0  0
    2.8042    5.7800   -0.1631 C   0  0  2  0  0  0  0  0  0  0  0  0
    4.0813    5.1360    0.1985 C   0  0  0  0  0  0  0  0  0  0  0  0
    4.7758    5.3720    1.1888 O   0  0  0  0  0  0  0  0  0  0  0  0
    2.1534    6.3132    1.0592 C   0  0  0  0  0  0  0  0  0  0  0  0
    0.8920    7.1084    0.8177 C   0  0  0  0  0  0  0  0  0  0  0  0
    0.3044    7.6640    2.0942 C   0  0  0  0  0  0  0  0  0  0  0  0
   -0.8982    8.4029    1.7871 N   0  0  0  0  0  0  0  0  0  0  0  0
   -2.1196    7.8721    1.3838 C   0  0  0  0  0  0  0  0  0  0  0  0
   -3.2100    8.7731    1.0994 N   0  0  0  0  0  0  0  0  0  0  0  0
   -2.3315    6.6185    1.2407 N   0  0  0  0  0  0  0  0  0  0  0  0
    2.2054    4.7847   -1.9829 H   0  0  0  0  0  0  0  0  0  0  0  0
    2.9650    6.7298   -0.8001 H   0  0  0  0  0  0  0  0  0  0  0  0
    2.0701    5.6175    1.9139 H   0  0  0  0  0  0  0  0  0  0  0  0
    2.8887    7.0962    1.4632 H   0  0  0  0  0  0  0  0  0  0  0  0
    0.1550    6.5191    0.2870 H   0  0  0  0  0  0  0  0  0  0  0  0
    1.1779    8.0331    0.2224 H   0  0  0  0  0  0  0  0  0  0  0  0
    1.0190    8.2513    2.6702 H   0  0  0  0  0  0  0  0  0  0  0  0
   -0.0548    6.7953    2.7354 H   0  0  0  0  0  0  0  0  0  0  0  0
   -0.8278    9.4596    1.8787 H   0  0  0  0  0  0  0  0  0  0  0  0
   -3.1014    9.5955    0.4723 H   0  0  0  0  0  0  0  0  0  0  0  0
   -4.1581    8.6211    1.5308 H   0  0  0  0  0  0  0  0  0  0  0  0
   -3.2749    6.2984    0.9320 H   0  0  0  0  0  0  0  0  0  0  0  0
   -1.6467    5.8563    1.4267 H   0  0  0  0  0  0  0  0  0  0  0  0
    4.6034    4.1366   -0.6899 N   0  0  0  0  0  0  0  0  0  0  0  0
    5.7297    3.2699   -0.2827 C   0  0  2  0  0  0  0  0  0  0  0  0
    6.9763    4.0834   -0.2057 C   0  0  0  0  0  0  0  0  0  0  0  0
    6.8555    5.3006   -0.5617 O   0  0  0  0  0  0  0  0  0  0  0  0
    5.7691    2.1926   -1.2858 C   0  0  0  0  0  0  0  0  0  0  0  0
    6.7052    0.7372   -0.7356 S   0  0  0  0  0  0  0  0  0  0  0  0
    4.1521    4.0805   -1.6009 H   0  0  0  0  0  0  0  0  0  0  0  0
    5.5804    2.9596    0.7901 H   0  0  0  0  0  0  0  0  0  0  0  0
    4.7835    1.9422   -1.7270 H   0  0  0  0  0  0  0  0  0  0  0  0
    6.3585    2.5972   -2.1691 H   0  0  0  0  0  0  0  0  0  0  0  0
    8.1852    3.5449    0.2397 N   0  0  0  0  0  0  0  0  0  0  0  0
    9.4399    4.1872    0.4062 C   0  0  2  0  0  0  0  0  0  0  0  0
    9.5626    4.8584    1.7343 C   0  0  0  0  0  0  0  0  0  0  0  0
   10.5642    5.4535    2.1342 O   0  0  0  0  0  0  0  0  0  0  0  0
    9.8028    5.0808   -0.7348 C   0  0  0  0  0  0  0  0  0  0  0  0
    9.9275    4.2936   -1.9701 C   0  0  0  0  0  0  0  0  0  0  0  0
    8.9730    4.1056   -2.9258 C   0  0  0  0  0  0  0  0  0  0  0  0
   11.1659    3.6689   -2.1724 C   0  0  0  0  0  0  0  0  0  0  0  0
    9.2513    3.3183   -4.0483 C   0  0  0  0  0  0  0  0  0  0  0  0
   11.4326    2.8962   -3.2782 C   0  0  0  0  0  0  0  0  0  0  0  0
   10.4603    2.7157   -4.2352 C   0  0  0  0  0  0  0  0  0  0  0  0
   10.7878    1.9261   -5.3299 O   0  0  0  0  0  0  0  0  0  0  0  0
    8.1463    2.4964    0.4853 H   0  0  0  0  0  0  0  0  0  0  0  0
   10.2415    3.3631    0.3352 H   0  0  0  0  0  0  0  0  0  0  0  0
    9.0435    5.8908   -0.8999 H   0  0  0  0  0  0  0  0  0  0  0  0
   10.7981    5.5409   -0.4947 H   0  0  0  0  0  0  0  0  0  0  0  0
    8.0076    4.5521   -2.8513 H   0  0  0  0  0  0  0  0  0  0  0  0
   11.9650    3.7725   -1.4488 H   0  0  0  0  0  0  0  0  0  0  0  0
    8.4791    3.1764   -4.8034 H   0  0  0  0  0  0  0  0  0  0  0  0
   12.4262    2.4339   -3.3731 H   0  0  0  0  0  0  0  0  0  0  0  0
   11.4970    1.1961   -5.2560 H   0  0  0  0  0  0  0  0  0  0  0  0
    8.4068    4.7839    2.5749 N   0  0  0  0  0  0  0  0  0  0  0  0
    8.3261    5.3609    3.8872 C   0  0  2  0  0  0  0  0  0  0  0  0
    7.8000    4.3017    4.7839 C   0  0  0  0  0  0  0  0  0  0  0  0
    7.6506    4.5538    6.0107 O   0  0  0  0  0  0  0  0  0  0  0  0
    7.1935    6.4024    3.8028 C   0  0  0  0  0  0  0  0  0  0  0  0
    7.5357    4.2790    2.2356 H   0  0  0  0  0  0  0  0  0  0  0  0
    9.2440    5.8135    4.2588 H   0  0  0  0  0  0  0  0  0  0  0  0
    7.4741    7.2179    3.1378 H   0  0  0  0  0  0  0  0  0  0  0  0
    6.3073    5.8350    3.4335 H   0  0  0  0  0  0  0  0  0  0  0  0
    6.9135    6.7150    4.8340 H   0  0  0  0  0  0  0  0  0  0  0  0
    7.4455    2.9985    4.3420 N   0  0  0  0  0  0  0  0  0  0  0  0
    6.4637    2.6213    4.4594 H   0  0  0  0  0  0  0  0  0  0  0  0
    8.1077    2.3339    3.8801 H   0  0  0  0  0  0  0  0  0  0  0  0
    3.6537   -1.1830    2.1834 H   0  0  0  0  0  0  0  0  0  0  0  0
    1.7080    0.8676    1.3572 H   0  0  0  0  0  0  0  0  0  0  0  0
    2.0195    0.6587   -0.8965 H   0  0  0  0  0  0  0  0  0  0  0  0
    3.0345   -0.9641   -2.0419 H   0  0  0  0  0  0  0  0  0  0  0  0
    5.0024   -1.6223   -1.0311 H   0  0  0  0  0  0  0  0  0  0  0  0
    4.0452    0.6002   -0.2323 H   0  0  0  0  0  0  0  0  0  0  0  0
    2.1859   -3.2841   -0.3147 H   0  0  0  0  0  0  0  0  0  0  0  0
    3.2479   -2.7229   -2.8519 H   0  0  0  0  0  0  0  0  0  0  0  0
   -3.1370   -7.4982    0.8962 H   0  0  0  0  0  0  0  0  0  0  0  0
   -2.6472   -6.5133   -1.7446 H   0  0  0  0  0  0  0  0  0  0  0  0
   -6.8176   -5.3569    0.9282 H   0  0  0  0  0  0  0  0  0  0  0  0
   -8.5903   -5.5679   -0.1665 H   0  0  0  0  0  0  0  0  0  0  0  0
   -4.2951    1.5972   -0.0145 H   0  0  0  0  0  0  0  0  0  0  0  0
   -4.4645    0.8008    2.0341 H   0  0  0  0  0  0  0  0  0  0  0  0
  1  2  1  0
  1 11  1  1
  1 12  1  0
  1 13  1  0
  2  3  1  0
  2  7  1  0
  3  4  1  0
  3 10  1  0
  4  5  1  0
  4 14  1  0
  5  6  1  0
  5  9  1  0
  6  7  1  0
  6 15  1  0
  7  8  1  0
  8 16  1  1
  8 17  1  0
  8171  1  0
  9 19  1  0
  9 21  1  0
 10 18  1  6
 10 20  1  0
 10118  1  0
 23 38  1  0
 38 39  1  0
 38 46  1  0
 39 40  1  0
 39 44  1  0
 39 47  1  1
 40 41  1  0
 40 48  1  6
 40 49  1  0
 41 42  1  0
 41 50  1  6
 41 51  1  0
 42 43  1  0
 42 52  1  6
 42 53  1  0
 43 54  1  6
 43 55  1  0
 44 45  1  0
 44 57  1  0
 57 58  1  0
 57 65  1  0
 58 59  1  0
 58 61  1  0
 58 66  1  6
 59 60  1  0
 59 76  1  0
 61 62  1  0
 61 67  1  6
 61 68  1  0
 62 63  1  0
 62 69  1  1
 62 70  1  0
 63 64  1  0
 63 71  1  1
 63 72  1  0
 64 73  1  6
 64 74  1  0
 64 75  1  0
 78 97  1  0
 97 98  1  0
 97104  1  0
 98 99  1  0
 98101  1  0
 98105  1  6
 99100  1  0
 99113  1  0
101102  1  0
101106  1  1
101107  1  0
102103  1  0
102108  1  6
102109  1  0
103110  1  1
103111  1  0
199207  1  0
207208  1  0
207209  1  0
 22 21  1  0
 23 22  1  0
 24 23  2  0
 25 22  1  0
 26 25  1  0
 27 26  1  0
 28 26  2  0
 29 27  2  0
 30 28  1  0
 30 29  1  0
 31 21  1  0
 22 32  1  1
 33 25  1  0
 34 25  1  0
 35 28  1  0
 36 29  1  0
 37 30  1  0
 56 43  1  0
 77 76  1  0
 78 77  1  0
 79 78  2  0
 80 77  1  0
 81 80  1  0
 82 81  2  0
 83 81  1  0
 84 82  1  0
 85 83  2  0
 86 85  1  0
 86 84  2  0
 87 86  1  0
 88 76  1  0
 77 89  1  6
 90 80  1  0
 91 80  1  0
 92 82  1  0
 93 83  1  0
 94 84  1  0
 95 85  1  0
 96 87  1  0
112103  1  0
114113  1  0
115114  1  0
116115  2  0
117114  1  0
118117  1  0
119113  1  0
114120  1  1
121117  1  0
122117  1  0
123115  1  0
124123  1  0
125124  1  0
126125  2  0
127124  1  0
128127  1  0
129127  1  0
130128  1  0
131123  1  0
124132  1  6
127133  1  6
134128  1  0
135128  1  0
136129  1  0
137129  1  0
138129  1  0
139130  1  0
140130  1  0
141130  1  0
142125  1  0
143142  1  0
144143  1  0
145144  2  0
146143  1  0
147146  1  0
148147  1  0
149148  1  0
150149  1  0
151150  1  0
152150  2  0
153142  1  0
143154  1  6
155146  1  0
156146  1  0
157147  1  0
158147  1  0
159148  1  0
160148  1  0
161149  1  0
162151  1  0
163151  1  0
164152  1  0
165152  1  0
166144  1  0
167166  1  0
168167  1  0
169168  2  0
170167  1  0
171170  1  0
172166  1  0
167173  1  1
174170  1  0
175170  1  0
176168  1  0
177176  1  0
178177  1  0
179178  2  0
180177  1  0
181180  1  0
182181  2  0
183181  1  0
184182  1  0
185183  2  0
186185  1  0
186184  2  0
187186  1  0
188176  1  0
177189  1  1
190180  1  0
191180  1  0
192182  1  0
193183  1  0
194184  1  0
195185  1  0
196187  1  0
197178  1  0
198197  1  0
199198  1  0
200199  2  0
201198  1  0
202197  1  0
198203  1  1
204201  1  0
205201  1  0
206201  1  0
  2210  1  1
  3211  1  6
  4212  1  0
  5213  1  0
  6214  1  0
  7215  1  0
  9216  1  0
 19217  1  0
 44218  1  0
 45219  1  0
 59220  1  0
 60221  1  0
 99222  1  0
100223  1  0
M  CHG  3  43   1 103   1 152   1
M  END
$$$$
BP70
     RDKit          3D

223228  0  0  0  0  0  0  0  0999 V2000
   -1.6305   -0.1874   -0.9794 C   0  0  2  0  0  0  0  0  0  0  0  0
   -2.1544    1.1882   -0.5474 C   0  0  1  0  0  0  0  0  0  0  0  0
   -3.5262    1.2866   -1.1088 C   0  0  1  0  0  0  0  0  0  0  0  0
   -4.5511    0.5081   -0.3290 C   0  0  0  0  0  0  0  0  0  0  0  0
   -4.5024    0.6913    1.1446 C   0  0  0  0  0  0  0  0  0  0  0  0
   -3.2725    1.2530    1.7266 C   0  0  0  0  0  0  0  0  0  0  0  0
   -2.0601    1.4475    0.9094 C   0  0  0  0  0  0  0  0  0  0  0  0
   -0.8673    0.6875    1.4509 C   0  0  2  0  0  0  0  0  0  0  0  0
   -4.9229   -0.6300    1.8590 C   0  0  0  0  0  0  0  0  0  0  0  0
   -3.9038    2.7265   -1.2645 C   0  0  1  0  0  0  0  0  0  0  0  0
   -0.5611   -0.1750   -1.1332 H   0  0  0  0  0  0  0  0  0  0  0  0
   -2.1757   -0.4879   -1.9282 H   0  0  0  0  0  0  0  0  0  0  0  0
   -1.9096   -0.8722   -0.2042 H   0  0  0  0  0  0  0  0  0  0  0  0
   -4.3685   -0.5771   -0.5179 H   0  0  0  0  0  0  0  0  0  0  0  0
   -2.9663    0.5796    2.5871 H   0  0  0  0  0  0  0  0  0  0  0  0
   -0.4607   -0.0942    0.8330 H   0  0  0  0  0  0  0  0  0  0  0  0
   -1.2275    0.1705    2.3900 H   0  0  0  0  0  0  0  0  0  0  0  0
   -4.9609    2.7223   -1.7274 H   0  0  0  0  0  0  0  0  0  0  0  0
   -6.3404   -0.6234    2.0309 O   0  0  0  0  0  0  0  0  0  0  0  0
   -4.1267    3.1813   -0.2502 H   0  0  0  0  0  0  0  0  0  0  0  0
   -4.3908   -0.5892    3.1562 N   0  0  0  0  0  0  0  0  0  0  0  0
   -4.1597   -1.9040    3.8086 C   0  0  2  0  0  0  0  0  0  0  0  0
   -3.1259   -2.5942    3.0645 C   0  0  0  0  0  0  0  0  0  0  0  0
   -2.7471   -2.0545    1.9847 O   0  0  0  0  0  0  0  0  0  0  0  0
   -5.4634   -2.6050    4.0138 C   0  0  0  0  0  0  0  0  0  0  0  0
   -5.3356   -3.9003    4.6830 C   0  0  0  0  0  0  0  0  0  0  0  0
   -5.1915   -5.1577    4.2587 N   0  0  0  0  0  0  0  0  0  0  0  0
   -5.3229   -4.0129    6.0879 C   0  0  0  0  0  0  0  0  0  0  0  0
   -5.0908   -6.0128    5.3071 C   0  0  0  0  0  0  0  0  0  0  0  0
   -5.1717   -5.3059    6.4281 N   0  0  0  0  0  0  0  0  0  0  0  0
   -4.9752   -0.0689    3.8196 H   0  0  0  0  0  0  0  0  0  0  0  0
   -3.7712   -1.6205    4.8070 H   0  0  0  0  0  0  0  0  0  0  0  0
   -5.9962   -2.7671    3.0287 H   0  0  0  0  0  0  0  0  0  0  0  0
   -6.1558   -1.9753    4.6275 H   0  0  0  0  0  0  0  0  0  0  0  0
   -5.4207   -3.1804    6.7999 H   0  0  0  0  0  0  0  0  0  0  0  0
   -4.9605   -7.0941    5.2963 H   0  0  0  0  0  0  0  0  0  0  0  0
   -5.1287   -5.6411    7.4353 H   0  0  0  0  0  0  0  0  0  0  0  0
   -2.4324   -3.8060    3.3393 N   0  0  0  0  0  0  0  0  0  0  0  0
   -1.4072   -4.1962    2.4039 C   0  0  1  0  0  0  0  0  0  0  0  0
   -0.1604   -4.5460    3.1453 C   0  0  2  0  0  0  0  0  0  0  0  0
    0.4420   -3.4856    3.9825 C   0  0  2  0  0  0  0  0  0  0  0  0
   -0.3466   -3.0230    5.1370 C   0  0  1  0  0  0  0  0  0  0  0  0
    0.4962   -1.9529    5.7901 N   0  0  2  0  0  0  0  0  0  0  0  0
   -1.7565   -5.3788    1.5095 C   0  0  0  0  0  0  0  0  0  0  0  0
   -1.9951   -6.5235    2.2214 O   0  0  0  0  0  0  0  0  0  0  0  0
   -2.6833   -4.3118    4.1653 H   0  0  0  0  0  0  0  0  0  0  0  0
   -1.1091   -3.3563    1.7194 H   0  0  0  0  0  0  0  0  0  0  0  0
    0.6082   -4.9523    2.4007 H   0  0  0  0  0  0  0  0  0  0  0  0
   -0.3588   -5.4746    3.7819 H   0  0  0  0  0  0  0  0  0  0  0  0
    0.7006   -2.6076    3.3314 H   0  0  0  0  0  0  0  0  0  0  0  0
    1.4141   -3.9004    4.3634 H   0  0  0  0  0  0  0  0  0  0  0  0
   -1.3101   -2.5723    4.9984 H   0  0  0  0  0  0  0  0  0  0  0  0
   -0.4848   -3.8280    5.9069 H   0  0  0  0  0  0  0  0  0  0  0  0
    1.0185   -1.4490    5.0247 H   0  0  0  0  0  0  0  0  0  0  0  0
    1.1172   -2.4153    6.5015 H   0  0  0  0  0  0  0  0  0  0  0  0
   -0.1819   -1.2717    6.2825 H   0  0  0  0  0  0  0  0  0  0  0  0
   -2.7890   -5.0731    0.6078 N   0  0  0  0  0  0  0  0  0  0  0  0
   -3.3297   -5.9372   -0.3080 C   0  0  2  0  0  0  0  0  0  0  0  0
   -4.0446   -5.1992   -1.5010 C   0  0  0  0  0  0  0  0  0  0  0  0
   -4.5165   -6.2910   -2.2358 O   0  0  0  0  0  0  0  0  0  0  0  0
   -4.5111   -6.7058    0.2124 C   0  0  2  0  0  0  0  0  0  0  0  0
   -4.4140   -7.5732    1.3799 C   0  0  1  0  0  0  0  0  0  0  0  0
   -5.8285   -8.2401    1.4966 C   0  0  1  0  0  0  0  0  0  0  0  0
   -5.7784   -9.1455    2.7074 C   0  0  2  0  0  0  0  0  0  0  0  0
   -3.5257   -4.5375    1.1192 H   0  0  0  0  0  0  0  0  0  0  0  0
   -2.6027   -6.6813   -0.7423 H   0  0  0  0  0  0  0  0  0  0  0  0
   -5.0468   -7.2368   -0.6207 H   0  0  0  0  0  0  0  0  0  0  0  0
   -5.2657   -5.8860    0.4926 H   0  0  0  0  0  0  0  0  0  0  0  0
   -3.7408   -8.4166    1.3385 H   0  0  0  0  0  0  0  0  0  0  0  0
   -4.4152   -7.0283    2.3883 H   0  0  0  0  0  0  0  0  0  0  0  0
   -6.5096   -7.4039    1.7303 H   0  0  0  0  0  0  0  0  0  0  0  0
   -6.0506   -8.7780    0.5747 H   0  0  0  0  0  0  0  0  0  0  0  0
   -6.5494   -9.9080    2.6632 H   0  0  0  0  0  0  0  0  0  0  0  0
   -5.9290   -8.4870    3.6093 H   0  0  0  0  0  0  0  0  0  0  0  0
   -4.7666   -9.5950    2.8534 H   0  0  0  0  0  0  0  0  0  0  0  0
   -3.3172   -4.2763   -2.1913 N   0  0  0  0  0  0  0  0  0  0  0  0
   -3.6859   -3.5270   -3.2979 C   0  0  2  0  0  0  0  0  0  0  0  0
   -2.5506   -2.6897   -3.7401 C   0  0  0  0  0  0  0  0  0  0  0  0
   -1.4660   -2.7609   -3.1378 O   0  0  0  0  0  0  0  0  0  0  0  0
   -4.9460   -2.7914   -3.4097 C   0  0  0  0  0  0  0  0  0  0  0  0
   -6.2248   -3.5131   -3.4046 C   0  0  0  0  0  0  0  0  0  0  0  0
   -6.6252   -4.0077   -4.6723 C   0  0  0  0  0  0  0  0  0  0  0  0
   -7.0775   -3.7247   -2.3694 C   0  0  0  0  0  0  0  0  0  0  0  0
   -7.8141   -4.6683   -4.8503 C   0  0  0  0  0  0  0  0  0  0  0  0
   -8.2880   -4.4006   -2.5647 C   0  0  0  0  0  0  0  0  0  0  0  0
   -8.6854   -4.8776   -3.7591 C   0  0  0  0  0  0  0  0  0  0  0  0
   -9.8598   -5.5537   -4.0383 O   0  0  0  0  0  0  0  0  0  0  0  0
   -2.2781   -4.2428   -2.0510 H   0  0  0  0  0  0  0  0  0  0  0  0
   -3.7522   -4.2938   -4.2157 H   0  0  0  0  0  0  0  0  0  0  0  0
   -4.8934   -2.0484   -4.2316 H   0  0  0  0  0  0  0  0  0  0  0  0
   -4.9783   -2.0827   -2.4939 H   0  0  0  0  0  0  0  0  0  0  0  0
   -5.9886   -3.8683   -5.5426 H   0  0  0  0  0  0  0  0  0  0  0  0
   -6.7879   -3.3461   -1.3968 H   0  0  0  0  0  0  0  0  0  0  0  0
   -8.0555   -5.0162   -5.8426 H   0  0  0  0  0  0  0  0  0  0  0  0
   -8.9483   -4.5586   -1.7105 H   0  0  0  0  0  0  0  0  0  0  0  0
  -10.0096   -5.9867   -4.9494 H   0  0  0  0  0  0  0  0  0  0  0  0
   -2.5616   -1.7710   -4.8341 N   0  0  0  0  0  0  0  0  0  0  0  0
   -1.3576   -1.0507   -5.2251 C   0  0  2  0  0  0  0  0  0  0  0  0
   -1.6594    0.3760   -5.4609 C   0  0  0  0  0  0  0  0  0  0  0  0
   -2.6639    0.5447   -6.4549 O   0  0  0  0  0  0  0  0  0  0  0  0
   -0.8364   -1.6827   -6.5130 C   0  0  2  0  0  0  0  0  0  0  0  0
    0.4010   -1.0050   -6.9744 C   0  0  1  0  0  0  0  0  0  0  0  0
    1.4499   -1.1052   -5.9504 N   0  0  2  0  0  0  0  0  0  0  0  0
   -3.4142   -1.6425   -5.3318 H   0  0  0  0  0  0  0  0  0  0  0  0
   -0.5622   -1.1649   -4.4520 H   0  0  0  0  0  0  0  0  0  0  0  0
   -1.5911   -1.5958   -7.3110 H   0  0  0  0  0  0  0  0  0  0  0  0
   -0.6720   -2.7542   -6.3317 H   0  0  0  0  0  0  0  0  0  0  0  0
    0.8496   -1.5228   -7.8732 H   0  0  0  0  0  0  0  0  0  0  0  0
    0.3103    0.0470   -7.2617 H   0  0  0  0  0  0  0  0  0  0  0  0
    2.3616   -0.7135   -6.3723 H   0  0  0  0  0  0  0  0  0  0  0  0
    1.6050   -2.1430   -5.7003 H   0  0  0  0  0  0  0  0  0  0  0  0
    1.2034   -0.5651   -5.0878 H   0  0  0  0  0  0  0  0  0  0  0  0
   -1.9929    1.1849   -4.2886 N   0  0  0  0  0  0  0  0  0  0  0  0
   -1.8077    2.5822   -4.5707 C   0  0  2  0  0  0  0  0  0  0  0  0
   -0.3486    2.8588   -4.6405 C   0  0  0  0  0  0  0  0  0  0  0  0
    0.5478    2.0169   -4.5069 O   0  0  0  0  0  0  0  0  0  0  0  0
   -2.6531    3.5664   -3.9285 C   0  0  0  0  0  0  0  0  0  0  0  0
   -2.8542    3.7866   -2.2184 S   0  0  0  0  0  0  0  0  0  0  0  0
   -1.2616    0.9333   -3.5750 H   0  0  0  0  0  0  0  0  0  0  0  0
   -2.1104    2.6370   -5.6995 H   0  0  0  0  0  0  0  0  0  0  0  0
   -2.4717    4.5974   -4.4267 H   0  0  0  0  0  0  0  0  0  0  0  0
   -3.7247    3.3844   -4.3640 H   0  0  0  0  0  0  0  0  0  0  0  0
    0.1705    4.1973   -4.8754 N   0  0  0  0  0  0  0  0  0  0  0  0
    1.6104    4.4209   -5.0537 C   0  0  2  0  0  0  0  0  0  0  0  0
    2.2862    5.1888   -4.0349 C   0  0  0  0  0  0  0  0  0  0  0  0
    3.5002    5.4184   -4.1071 O   0  0  0  0  0  0  0  0  0  0  0  0
    1.7099    5.1514   -6.3776 C   0  0  2  0  0  0  0  0  0  0  0  0
    1.1169    4.2973   -7.5009 C   0  0  0  0  0  0  0  0  0  0  0  0
    3.1321    5.4994   -6.6416 C   0  0  0  0  0  0  0  0  0  0  0  0
    1.2244    5.0343   -8.8170 C   0  0  0  0  0  0  0  0  0  0  0  0
   -0.5403    4.9198   -4.8964 H   0  0  0  0  0  0  0  0  0  0  0  0
    2.1334    3.4434   -5.1900 H   0  0  0  0  0  0  0  0  0  0  0  0
    1.0424    6.0292   -6.3060 H   0  0  0  0  0  0  0  0  0  0  0  0
    1.6701    3.3384   -7.5085 H   0  0  0  0  0  0  0  0  0  0  0  0
    0.0341    4.1360   -7.3059 H   0  0  0  0  0  0  0  0  0  0  0  0
    3.3437    6.4869   -6.1288 H   0  0  0  0  0  0  0  0  0  0  0  0
    3.3159    5.6350   -7.7512 H   0  0  0  0  0  0  0  0  0  0  0  0
    3.8818    4.7939   -6.2807 H   0  0  0  0  0  0  0  0  0  0  0  0
    0.2301    5.0628   -9.3492 H   0  0  0  0  0  0  0  0  0  0  0  0
    1.9414    4.4614   -9.4465 H   0  0  0  0  0  0  0  0  0  0  0  0
    1.5550    6.0660   -8.6466 H   0  0  0  0  0  0  0  0  0  0  0  0
    1.6675    5.7644   -2.8540 N   0  0  0  0  0  0  0  0  0  0  0  0
    2.4721    6.5468   -1.9090 C   0  0  2  0  0  0  0  0  0  0  0  0
    2.5500    5.7384   -0.6598 C   0  0  0  0  0  0  0  0  0  0  0  0
    3.0258    6.1570    0.4118 O   0  0  0  0  0  0  0  0  0  0  0  0
    2.0400    7.9433   -1.7212 C   0  0  0  0  0  0  0  0  0  0  0  0
    2.9466    8.6670   -0.7407 C   0  0  0  0  0  0  0  0  0  0  0  0
    4.3741    8.6973   -1.1598 C   0  0  0  0  0  0  0  0  0  0  0  0
    5.2271    9.4001   -0.1766 N   0  0  0  0  0  0  0  0  0  0  0  0
    6.6041    9.4655   -0.5384 C   0  0  0  0  0  0  0  0  0  0  0  0
    7.5095   10.1161    0.3415 N   0  0  0  0  0  0  0  0  0  0  0  0
    7.0329    8.9322   -1.6577 N   0  0  0  0  0  0  0  0  0  0  0  0
    0.6795    5.5792   -2.7779 H   0  0  0  0  0  0  0  0  0  0  0  0
    3.5345    6.5839   -2.2598 H   0  0  0  0  0  0  0  0  0  0  0  0
    2.1283    8.4746   -2.6928 H   0  0  0  0  0  0  0  0  0  0  0  0
    1.0050    8.0522   -1.3248 H   0  0  0  0  0  0  0  0  0  0  0  0
    2.7884    8.3655    0.2926 H   0  0  0  0  0  0  0  0  0  0  0  0
    2.6121    9.7607   -0.7894 H   0  0  0  0  0  0  0  0  0  0  0  0
    4.8611    7.7045   -1.2581 H   0  0  0  0  0  0  0  0  0  0  0  0
    4.5352    9.2156   -2.1222 H   0  0  0  0  0  0  0  0  0  0  0  0
    4.8620    9.8081    0.6910 H   0  0  0  0  0  0  0  0  0  0  0  0
    7.5038    9.9620    1.3745 H   0  0  0  0  0  0  0  0  0  0  0  0
    8.2401   10.7927   -0.0122 H   0  0  0  0  0  0  0  0  0  0  0  0
    6.4106    8.4439   -2.3282 H   0  0  0  0  0  0  0  0  0  0  0  0
    8.0687    9.0079   -1.8796 H   0  0  0  0  0  0  0  0  0  0  0  0
    2.0862    4.3837   -0.5879 N   0  0  0  0  0  0  0  0  0  0  0  0
    2.1251    3.6462    0.7205 C   0  0  2  0  0  0  0  0  0  0  0  0
    3.4396    2.9090    0.6668 C   0  0  0  0  0  0  0  0  0  0  0  0
    4.0522    3.0162   -0.4394 O   0  0  0  0  0  0  0  0  0  0  0  0
    0.9675    2.7394    0.6556 C   0  0  0  0  0  0  0  0  0  0  0  0
    0.4603    1.8123    2.0582 S   0  0  0  0  0  0  0  0  0  0  0  0
    1.7535    3.9812   -1.4425 H   0  0  0  0  0  0  0  0  0  0  0  0
    2.1233    4.3711    1.5264 H   0  0  0  0  0  0  0  0  0  0  0  0
    1.1808    2.0235   -0.2064 H   0  0  0  0  0  0  0  0  0  0  0  0
    0.0888    3.3142    0.2778 H   0  0  0  0  0  0  0  0  0  0  0  0
    3.9771    2.1482    1.7583 N   0  0  0  0  0  0  0  0  0  0  0  0
    5.2653    1.5385    1.4724 C   0  0  2  0  0  0  0  0  0  0  0  0
    5.5921    0.2484    1.9690 C   0  0  0  0  0  0  0  0  0  0  0  0
    6.5594   -0.3876    1.3511 O   0  0  0  0  0  0  0  0  0  0  0  0
    6.2595    2.5880    2.0507 C   0  0  0  0  0  0  0  0  0  0  0  0
    6.0598    2.8429    3.4711 C   0  0  0  0  0  0  0  0  0  0  0  0
    6.6840    2.2183    4.5203 C   0  0  0  0  0  0  0  0  0  0  0  0
    5.1287    3.8272    3.8170 C   0  0  0  0  0  0  0  0  0  0  0  0
    6.4143    2.5383    5.8456 C   0  0  0  0  0  0  0  0  0  0  0  0
    4.8512    4.1522    5.1265 C   0  0  0  0  0  0  0  0  0  0  0  0
    5.4849    3.5196    6.1879 C   0  0  0  0  0  0  0  0  0  0  0  0
    5.2094    3.8459    7.4967 O   0  0  0  0  0  0  0  0  0  0  0  0
    3.4591    2.0718    2.6432 H   0  0  0  0  0  0  0  0  0  0  0  0
    5.4791    1.5994    0.3706 H   0  0  0  0  0  0  0  0  0  0  0  0
    7.2920    2.1713    1.8874 H   0  0  0  0  0  0  0  0  0  0  0  0
    6.1274    3.5354    1.4886 H   0  0  0  0  0  0  0  0  0  0  0  0
    7.4147    1.4626    4.2851 H   0  0  0  0  0  0  0  0  0  0  0  0
    4.5780    4.3758    3.0565 H   0  0  0  0  0  0  0  0  0  0  0  0
    6.9015    2.0531    6.6792 H   0  0  0  0  0  0  0  0  0  0  0  0
    4.1163    4.9267    5.3851 H   0  0  0  0  0  0  0  0  0  0  0  0
    4.6852    3.3268    8.1575 H   0  0  0  0  0  0  0  0  0  0  0  0
    5.0542   -0.5045    3.0412 N   0  0  0  0  0  0  0  0  0  0  0  0
    5.6229   -1.8294    3.2366 C   0  0  2  0  0  0  0  0  0  0  0  0
    4.8482   -2.6258    4.1492 C   0  0  0  0  0  0  0  0  0  0  0  0
    5.1891   -3.8609    4.2965 O   0  0  0  0  0  0  0  0  0  0  0  0
    7.0235   -1.6711    3.8808 C   0  0  0  0  0  0  0  0  0  0  0  0
    4.3099   -0.0715    3.6060 H   0  0  0  0  0  0  0  0  0  0  0  0
    5.8803   -2.2867    2.2417 H   0  0  0  0  0  0  0  0  0  0  0  0
    6.8590   -1.5843    4.9616 H   0  0  0  0  0  0  0  0  0  0  0  0
    7.6517   -2.5570    3.6060 H   0  0  0  0  0  0  0  0  0  0  0  0
    7.4363   -0.7466    3.4713 H   0  0  0  0  0  0  0  0  0  0  0  0
    3.7327   -2.2321    4.9322 N   0  0  0  0  0  0  0  0  0  0  0  0
    3.2317   -2.8994    5.5409 H   0  0  0  0  0  0  0  0  0  0  0  0
    3.3829   -1.2519    4.9250 H   0  0  0  0  0  0  0  0  0  0  0  0
   -1.4865    1.8899   -1.0953 H   0  0  0  0  0  0  0  0  0  0  0  0
   -3.4988    0.8530   -2.1413 H   0  0  0  0  0  0  0  0  0  0  0  0
   -5.5321    0.7101   -0.8110 H   0  0  0  0  0  0  0  0  0  0  0  0
   -5.3375    1.3705    1.4023 H   0  0  0  0  0  0  0  0  0  0  0  0
   -3.4688    2.2248    2.2844 H   0  0  0  0  0  0  0  0  0  0  0  0
   -1.7344    2.5475    0.9894 H   0  0  0  0  0  0  0  0  0  0  0  0
   -4.7394   -1.4707    1.2108 H   0  0  0  0  0  0  0  0  0  0  0  0
   -6.7955   -1.1475    1.3463 H   0  0  0  0  0  0  0  0  0  0  0  0
   -0.7550   -5.5802    0.9867 H   0  0  0  0  0  0  0  0  0  0  0  0
   -1.1990   -7.0711    2.4241 H   0  0  0  0  0  0  0  0  0  0  0  0
   -4.8994   -4.7324   -0.9852 H   0  0  0  0  0  0  0  0  0  0  0  0
   -5.4696   -6.1834   -2.4958 H   0  0  0  0  0  0  0  0  0  0  0  0
   -0.7944    0.9277   -5.9184 H   0  0  0  0  0  0  0  0  0  0  0  0
   -3.0477   -0.2856   -6.7677 H   0  0  0  0  0  0  0  0  0  0  0  0
  1  2  1  0
  1 11  1  6
  1 12  1  0
  1 13  1  0
  2  3  1  0
  2  7  1  0
  3  4  1  0
  3 10  1  0
  4  5  1  0
  4 14  1  0
  5  6  1  0
  5  9  1  0
  6  7  1  0
  6 15  1  0
  7  8  1  0
  8 16  1  6
  8 17  1  0
  8171  1  0
  9 19  1  0
  9 21  1  0
 10 18  1  6
 10 20  1  0
 10118  1  0
 23 38  1  0
 38 39  1  0
 38 46  1  0
 39 40  1  0
 39 44  1  0
 39 47  1  6
 40 41  1  0
 40 48  1  6
 40 49  1  0
 41 42  1  0
 41 50  1  6
 41 51  1  0
 42 43  1  0
 42 52  1  6
 42 53  1  0
 43 54  1  6
 43 55  1  0
 44 45  1  0
 44 57  1  0
 57 58  1  0
 57 65  1  0
 58 59  1  0
 58 61  1  0
 58 66  1  6
 59 60  1  0
 59 76  1  0
 61 62  1  0
 61 67  1  6
 61 68  1  0
 62 63  1  0
 62 69  1  6
 62 70  1  0
 63 64  1  0
 63 71  1  1
 63 72  1  0
 64 73  1  6
 64 74  1  0
 64 75  1  0
 78 97  1  0
 97 98  1  0
 97104  1  0
 98 99  1  0
 98101  1  0
 98105  1  1
 99100  1  0
 99113  1  0
101102  1  0
101106  1  6
101107  1  0
102103  1  0
102108  1  6
102109  1  0
103110  1  6
103111  1  0
199207  1  0
207208  1  0
207209  1  0
 22 21  1  0
 23 22  1  0
 24 23  2  0
 25 22  1  0
 26 25  1  0
 27 26  1  0
 28 26  2  0
 29 27  2  0
 30 28  1  0
 30 29  1  0
 31 21  1  0
 22 32  1  1
 33 25  1  0
 34 25  1  0
 35 28  1  0
 36 29  1  0
 37 30  1  0
 56 43  1  0
 77 76  1  0
 78 77  1  0
 79 78  2  0
 80 77  1  0
 81 80  1  0
 82 81  2  0
 83 81  1  0
 84 82  1  0
 85 83  2  0
 86 85  1  0
 86 84  2  0
 87 86  1  0
 88 76  1  0
 77 89  1  6
 90 80  1  0
 91 80  1  0
 92 82  1  0
 93 83  1  0
 94 84  1  0
 95 85  1  0
 96 87  1  0
112103  1  0
114113  1  0
115114  1  0
116115  2  0
117114  1  0
118117  1  0
119113  1  0
114120  1  6
121117  1  0
122117  1  0
123115  1  0
124123  1  0
125124  1  0
126125  2  0
127124  1  0
128127  1  0
129127  1  0
130128  1  0
131123  1  0
124132  1  6
127133  1  1
134128  1  0
135128  1  0
136129  1  0
137129  1  0
138129  1  0
139130  1  0
140130  1  0
141130  1  0
142125  1  0
143142  1  0
144143  1  0
145144  2  0
146143  1  0
147146  1  0
148147  1  0
149148  1  0
150149  1  0
151150  1  0
152150  2  0
153142  1  0
143154  1  6
155146  1  0
156146  1  0
157147  1  0
158147  1  0
159148  1  0
160148  1  0
161149  1  0
162151  1  0
163151  1  0
164152  1  0
165152  1  0
166144  1  0
167166  1  0
168167  1  0
169168  2  0
170167  1  0
171170  1  0
172166  1  0
167173  1  1
174170  1  0
175170  1  0
176168  1  0
177176  1  0
178177  1  0
179178  2  0
180177  1  0
181180  1  0
182181  2  0
183181  1  0
184182  1  0
185183  2  0
186185  1  0
186184  2  0
187186  1  0
188176  1  0
177189  1  6
190180  1  0
191180  1  0
192182  1  0
193183  1  0
194184  1  0
195185  1  0
196187  1  0
197178  1  0
198197  1  0
199198  1  0
200199  2  0
201198  1  0
202197  1  0
198203  1  6
204201  1  0
205201  1  0
206201  1  0
  2210  1  6
  3211  1  6
  4212  1  0
  5213  1  0
  6214  1  0
  7215  1  0
  9216  1  0
 19217  1  0
 44218  1  0
 45219  1  0
 59220  1  0
 60221  1  0
 99222  1  0
100223  1  0
M  CHG  3  43   1 103   1 152   1
M  END
$$$$
BP70
     RDKit          3D

223228  0  0  0  0  0  0  0  0999 V2000
    4.2356   -0.6494   -3.2888 C   0  0  2  0  0  0  0  0  0  0  0  0
    2.9808    0.0404   -2.7391 C   0  0  1  0  0  0  0  0  0  0  0  0
    2.5662    1.0553   -3.7842 C   0  0  1  0  0  0  0  0  0  0  0  0
    1.5075    0.5800   -4.7191 C   0  0  0  0  0  0  0  0  0  0  0  0
    1.5225   -0.8624   -4.9744 C   0  0  0  0  0  0  0  0  0  0  0  0
    1.9330   -1.7805   -3.8496 C   0  0  0  0  0  0  0  0  0  0  0  0
    1.9771   -1.0263   -2.5102 C   0  0  0  0  0  0  0  0  0  0  0  0
    0.6219   -0.6807   -2.0591 C   0  0  2  0  0  0  0  0  0  0  0  0
    0.2201   -1.4974   -5.4888 C   0  0  0  0  0  0  0  0  0  0  0  0
    2.1874    2.2890   -2.9507 C   0  0  1  0  0  0  0  0  0  0  0  0
    4.1591   -0.7157   -4.3749 H   0  0  0  0  0  0  0  0  0  0  0  0
    4.3299   -1.5897   -2.7357 H   0  0  0  0  0  0  0  0  0  0  0  0
    5.1303    0.0209   -3.1229 H   0  0  0  0  0  0  0  0  0  0  0  0
    1.7575    1.0731   -5.7339 H   0  0  0  0  0  0  0  0  0  0  0  0
    2.9092   -2.2750   -4.0203 H   0  0  0  0  0  0  0  0  0  0  0  0
    0.1445   -1.6854   -1.7610 H   0  0  0  0  0  0  0  0  0  0  0  0
   -0.1019   -0.3525   -2.8441 H   0  0  0  0  0  0  0  0  0  0  0  0
    2.1348    3.0804   -3.7789 H   0  0  0  0  0  0  0  0  0  0  0  0
    0.0911   -1.0661   -6.8334 O   0  0  0  0  0  0  0  0  0  0  0  0
    1.1596    2.1934   -2.6555 H   0  0  0  0  0  0  0  0  0  0  0  0
    0.5088   -2.8765   -5.5400 N   0  0  0  0  0  0  0  0  0  0  0  0
   -0.3923   -3.9031   -5.6526 C   0  0  2  0  0  0  0  0  0  0  0  0
   -1.3698   -4.0685   -4.5286 C   0  0  0  0  0  0  0  0  0  0  0  0
   -1.6345   -3.0828   -3.8552 O   0  0  0  0  0  0  0  0  0  0  0  0
    0.2135   -5.1756   -6.1400 C   0  0  0  0  0  0  0  0  0  0  0  0
    1.2873   -5.7565   -5.3499 C   0  0  0  0  0  0  0  0  0  0  0  0
    1.9098   -5.4174   -4.2238 N   0  0  0  0  0  0  0  0  0  0  0  0
    1.9317   -6.9483   -5.7465 C   0  0  0  0  0  0  0  0  0  0  0  0
    2.8610   -6.2723   -3.8932 C   0  0  0  0  0  0  0  0  0  0  0  0
    2.8794   -7.2325   -4.8416 N   0  0  0  0  0  0  0  0  0  0  0  0
    1.4965   -3.0453   -5.8126 H   0  0  0  0  0  0  0  0  0  0  0  0
   -1.0491   -3.5961   -6.5876 H   0  0  0  0  0  0  0  0  0  0  0  0
   -0.5755   -5.9192   -6.4028 H   0  0  0  0  0  0  0  0  0  0  0  0
    0.6990   -4.9013   -7.1378 H   0  0  0  0  0  0  0  0  0  0  0  0
    1.7068   -7.5405   -6.6320 H   0  0  0  0  0  0  0  0  0  0  0  0
    3.5601   -6.3073   -3.0578 H   0  0  0  0  0  0  0  0  0  0  0  0
    3.4906   -8.0736   -4.9236 H   0  0  0  0  0  0  0  0  0  0  0  0
   -1.9862   -5.2867   -4.1968 N   0  0  0  0  0  0  0  0  0  0  0  0
   -3.0344   -5.5303   -3.2280 C   0  0  1  0  0  0  0  0  0  0  0  0
   -3.9424   -6.5341   -3.8722 C   0  0  2  0  0  0  0  0  0  0  0  0
   -5.1404   -7.0030   -3.1779 C   0  0  2  0  0  0  0  0  0  0  0  0
   -6.1415   -5.9242   -2.8391 C   0  0  1  0  0  0  0  0  0  0  0  0
   -6.6093   -5.2701   -4.1008 N   0  0  2  0  0  0  0  0  0  0  0  0
   -2.5171   -6.1090   -1.9354 C   0  0  0  0  0  0  0  0  0  0  0  0
   -3.6464   -6.4498   -1.1023 O   0  0  0  0  0  0  0  0  0  0  0  0
   -1.6317   -6.1088   -4.7147 H   0  0  0  0  0  0  0  0  0  0  0  0
   -3.5171   -4.5419   -3.0550 H   0  0  0  0  0  0  0  0  0  0  0  0
   -3.3110   -7.4470   -4.1052 H   0  0  0  0  0  0  0  0  0  0  0  0
   -4.2585   -6.2027   -4.9047 H   0  0  0  0  0  0  0  0  0  0  0  0
   -5.0416   -7.6981   -2.3443 H   0  0  0  0  0  0  0  0  0  0  0  0
   -5.7000   -7.6372   -3.9552 H   0  0  0  0  0  0  0  0  0  0  0  0
   -7.0759   -6.3512   -2.4268 H   0  0  0  0  0  0  0  0  0  0  0  0
   -5.7786   -5.1210   -2.2099 H   0  0  0  0  0  0  0  0  0  0  0  0
   -7.0572   -6.0387   -4.7022 H   0  0  0  0  0  0  0  0  0  0  0  0
   -5.7837   -4.8313   -4.5931 H   0  0  0  0  0  0  0  0  0  0  0  0
   -7.3187   -4.5325   -3.8339 H   0  0  0  0  0  0  0  0  0  0  0  0
   -1.5477   -5.4757   -1.1838 N   0  0  0  0  0  0  0  0  0  0  0  0
   -1.5348   -4.2959   -0.4986 C   0  0  2  0  0  0  0  0  0  0  0  0
   -0.2603   -4.2751    0.3946 C   0  0  0  0  0  0  0  0  0  0  0  0
   -0.2815   -3.0735    1.1274 O   0  0  0  0  0  0  0  0  0  0  0  0
   -2.5970   -3.7734    0.3704 C   0  0  2  0  0  0  0  0  0  0  0  0
   -3.9423   -3.4417   -0.1087 C   0  0  1  0  0  0  0  0  0  0  0  0
   -4.0650   -2.3609   -1.1435 C   0  0  1  0  0  0  0  0  0  0  0  0
   -5.5550   -2.2503   -1.4941 C   0  0  2  0  0  0  0  0  0  0  0  0
   -0.7770   -6.1656   -0.9122 H   0  0  0  0  0  0  0  0  0  0  0  0
   -1.3039   -3.4682   -1.2326 H   0  0  0  0  0  0  0  0  0  0  0  0
   -2.2183   -2.8017    0.8418 H   0  0  0  0  0  0  0  0  0  0  0  0
   -2.7371   -4.3931    1.3132 H   0  0  0  0  0  0  0  0  0  0  0  0
   -4.6520   -4.2160   -0.3488 H   0  0  0  0  0  0  0  0  0  0  0  0
   -4.4537   -2.9492    0.8184 H   0  0  0  0  0  0  0  0  0  0  0  0
   -3.8480   -1.3784   -0.6357 H   0  0  0  0  0  0  0  0  0  0  0  0
   -3.5184   -2.4701   -2.0565 H   0  0  0  0  0  0  0  0  0  0  0  0
   -6.1527   -3.0543   -1.0120 H   0  0  0  0  0  0  0  0  0  0  0  0
   -5.7045   -2.4182   -2.5991 H   0  0  0  0  0  0  0  0  0  0  0  0
   -5.9799   -1.2718   -1.2905 H   0  0  0  0  0  0  0  0  0  0  0  0
    0.9736   -4.2869   -0.3517 N   0  0  0  0  0  0  0  0  0  0  0  0
    2.0783   -4.5527    0.5232 C   0  0  2  0  0  0  0  0  0  0  0  0
    2.4872   -3.5517    1.4962 C   0  0  0  0  0  0  0  0  0  0  0  0
    3.1121   -3.9294    2.5164 O   0  0  0  0  0  0  0  0  0  0  0  0
    3.3069   -4.9890   -0.3253 C   0  0  0  0  0  0  0  0  0  0  0  0
    4.4635   -5.2793    0.5147 C   0  0  0  0  0  0  0  0  0  0  0  0
    4.7197   -6.5962    0.9348 C   0  0  0  0  0  0  0  0  0  0  0  0
    5.2996   -4.2579    0.9081 C   0  0  0  0  0  0  0  0  0  0  0  0
    5.8283   -6.7457    1.7356 C   0  0  0  0  0  0  0  0  0  0  0  0
    6.4033   -4.4388    1.7111 C   0  0  0  0  0  0  0  0  0  0  0  0
    6.6602   -5.7453    2.1320 C   0  0  0  0  0  0  0  0  0  0  0  0
    7.7761   -5.9049    2.9416 O   0  0  0  0  0  0  0  0  0  0  0  0
    0.9154   -5.0966   -1.0011 H   0  0  0  0  0  0  0  0  0  0  0  0
    1.8229   -5.4971    1.0882 H   0  0  0  0  0  0  0  0  0  0  0  0
    2.9866   -5.9563   -0.8059 H   0  0  0  0  0  0  0  0  0  0  0  0
    3.5259   -4.2886   -1.1218 H   0  0  0  0  0  0  0  0  0  0  0  0
    4.0954   -7.4062    0.6484 H   0  0  0  0  0  0  0  0  0  0  0  0
    5.1198   -3.2187    0.5923 H   0  0  0  0  0  0  0  0  0  0  0  0
    6.0420   -7.7646    2.0678 H   0  0  0  0  0  0  0  0  0  0  0  0
    7.0489   -3.6209    2.0085 H   0  0  0  0  0  0  0  0  0  0  0  0
    7.8164   -5.3863    3.8338 H   0  0  0  0  0  0  0  0  0  0  0  0
    2.2874   -2.1394    1.4341 N   0  0  0  0  0  0  0  0  0  0  0  0
    2.4913   -1.1914    2.4569 C   0  0  2  0  0  0  0  0  0  0  0  0
    3.4565   -0.0773    2.2786 C   0  0  0  0  0  0  0  0  0  0  0  0
    4.7541   -0.6604    2.1040 O   0  0  0  0  0  0  0  0  0  0  0  0
    2.6051   -1.7954    3.8604 C   0  0  2  0  0  0  0  0  0  0  0  0
    1.3526   -2.5057    4.2821 C   0  0  1  0  0  0  0  0  0  0  0  0
    1.5068   -3.1139    5.6418 N   0  0  2  0  0  0  0  0  0  0  0  0
    1.9876   -1.8195    0.4976 H   0  0  0  0  0  0  0  0  0  0  0  0
    1.4439   -0.7044    2.5860 H   0  0  0  0  0  0  0  0  0  0  0  0
    2.6284   -0.8666    4.5142 H   0  0  0  0  0  0  0  0  0  0  0  0
    3.5430   -2.2866    4.0713 H   0  0  0  0  0  0  0  0  0  0  0  0
    0.5137   -1.7323    4.4318 H   0  0  0  0  0  0  0  0  0  0  0  0
    0.9001   -3.2003    3.5771 H   0  0  0  0  0  0  0  0  0  0  0  0
    0.9403   -4.0284    5.6188 H   0  0  0  0  0  0  0  0  0  0  0  0
    1.1092   -2.4664    6.3738 H   0  0  0  0  0  0  0  0  0  0  0  0
    2.5310   -3.3288    5.7938 H   0  0  0  0  0  0  0  0  0  0  0  0
    3.1569    0.5970    0.9967 N   0  0  0  0  0  0  0  0  0  0  0  0
    3.8292    1.8277    0.7988 C   0  0  2  0  0  0  0  0  0  0  0  0
    3.2661    2.9218    1.6585 C   0  0  0  0  0  0  0  0  0  0  0  0
    2.5585    2.6412    2.6312 O   0  0  0  0  0  0  0  0  0  0  0  0
    4.2310    2.3020   -0.5404 C   0  0  0  0  0  0  0  0  0  0  0  0
    3.3328    2.8290   -1.8334 S   0  0  0  0  0  0  0  0  0  0  0  0
    3.3728   -0.1581    0.3430 H   0  0  0  0  0  0  0  0  0  0  0  0
    4.8215    1.6051    1.4179 H   0  0  0  0  0  0  0  0  0  0  0  0
    5.1002    1.5253   -0.7855 H   0  0  0  0  0  0  0  0  0  0  0  0
    4.9856    3.1482   -0.3147 H   0  0  0  0  0  0  0  0  0  0  0  0
    3.4775    4.3072    1.4299 N   0  0  0  0  0  0  0  0  0  0  0  0
    2.9634    5.3119    2.3774 C   0  0  2  0  0  0  0  0  0  0  0  0
    1.5467    5.6828    2.0928 C   0  0  0  0  0  0  0  0  0  0  0  0
    0.8855    6.4936    2.7520 O   0  0  0  0  0  0  0  0  0  0  0  0
    3.8967    6.4607    2.4897 C   0  0  2  0  0  0  0  0  0  0  0  0
    3.4716    7.5423    3.4468 C   0  0  0  0  0  0  0  0  0  0  0  0
    4.2228    7.0925    1.1550 C   0  0  0  0  0  0  0  0  0  0  0  0
    3.3229    7.0577    4.8585 C   0  0  0  0  0  0  0  0  0  0  0  0
    3.9870    4.5554    0.5875 H   0  0  0  0  0  0  0  0  0  0  0  0
    2.9004    4.7621    3.3585 H   0  0  0  0  0  0  0  0  0  0  0  0
    4.8524    6.0475    2.9181 H   0  0  0  0  0  0  0  0  0  0  0  0
    4.2978    8.3132    3.4135 H   0  0  0  0  0  0  0  0  0  0  0  0
    2.5604    8.0694    3.0833 H   0  0  0  0  0  0  0  0  0  0  0  0
    5.3219    7.0709    1.0235 H   0  0  0  0  0  0  0  0  0  0  0  0
    3.9381    8.1864    1.1610 H   0  0  0  0  0  0  0  0  0  0  0  0
    3.7731    6.5582    0.3123 H   0  0  0  0  0  0  0  0  0  0  0  0
    3.3227    5.9607    4.9445 H   0  0  0  0  0  0  0  0  0  0  0  0
    2.4475    7.5520    5.3368 H   0  0  0  0  0  0  0  0  0  0  0  0
    4.2097    7.3967    5.4429 H   0  0  0  0  0  0  0  0  0  0  0  0
    0.8104    5.1020    0.9829 N   0  0  0  0  0  0  0  0  0  0  0  0
   -0.6241    5.5209    0.7945 C   0  0  2  0  0  0  0  0  0  0  0  0
   -1.4387    4.2692    0.7806 C   0  0  0  0  0  0  0  0  0  0  0  0
   -2.6645    4.1952    0.7004 O   0  0  0  0  0  0  0  0  0  0  0  0
   -0.6911    6.2826   -0.4898 C   0  0  0  0  0  0  0  0  0  0  0  0
   -1.9187    6.9599   -0.9313 C   0  0  0  0  0  0  0  0  0  0  0  0
   -3.2090    6.2832   -1.1094 C   0  0  0  0  0  0  0  0  0  0  0  0
   -4.2165    7.2425   -1.6976 N   0  0  0  0  0  0  0  0  0  0  0  0
   -5.5127    6.6852   -1.8697 C   0  0  0  0  0  0  0  0  0  0  0  0
   -6.5100    7.5456   -2.4151 N   0  0  0  0  0  0  0  0  0  0  0  0
   -5.8376    5.4878   -1.5690 N   0  0  0  0  0  0  0  0  0  0  0  0
    1.3053    4.4677    0.4089 H   0  0  0  0  0  0  0  0  0  0  0  0
   -0.9669    6.1484    1.6140 H   0  0  0  0  0  0  0  0  0  0  0  0
    0.1661    7.0252   -0.5506 H   0  0  0  0  0  0  0  0  0  0  0  0
   -0.4559    5.5078   -1.2963 H   0  0  0  0  0  0  0  0  0  0  0  0
   -1.7377    7.5500   -1.8929 H   0  0  0  0  0  0  0  0  0  0  0  0
   -2.0700    7.8394   -0.1849 H   0  0  0  0  0  0  0  0  0  0  0  0
   -3.2592    5.3997   -1.7347 H   0  0  0  0  0  0  0  0  0  0  0  0
   -3.6977    6.1719   -0.0853 H   0  0  0  0  0  0  0  0  0  0  0  0
   -3.9392    8.2009   -1.9339 H   0  0  0  0  0  0  0  0  0  0  0  0
   -6.5633    7.8005   -3.4193 H   0  0  0  0  0  0  0  0  0  0  0  0
   -7.2119    7.9083   -1.7031 H   0  0  0  0  0  0  0  0  0  0  0  0
   -6.8350    5.1538   -1.7322 H   0  0  0  0  0  0  0  0  0  0  0  0
   -5.2130    4.7670   -1.1610 H   0  0  0  0  0  0  0  0  0  0  0  0
   -0.8194    2.9540    0.8632 N   0  0  0  0  0  0  0  0  0  0  0  0
   -1.5655    1.7265    0.7976 C   0  0  2  0  0  0  0  0  0  0  0  0
   -1.7821    1.0383    2.0905 C   0  0  0  0  0  0  0  0  0  0  0  0
   -2.2778   -0.1411    2.0086 O   0  0  0  0  0  0  0  0  0  0  0  0
   -1.3058    0.8526   -0.3724 C   0  0  0  0  0  0  0  0  0  0  0  0
    0.4059    0.3525   -0.6314 S   0  0  0  0  0  0  0  0  0  0  0  0
    0.1837    2.9742    0.9780 H   0  0  0  0  0  0  0  0  0  0  0  0
   -2.6716    2.0847    0.5773 H   0  0  0  0  0  0  0  0  0  0  0  0
   -1.8774   -0.1176   -0.2561 H   0  0  0  0  0  0  0  0  0  0  0  0
   -1.7547    1.2845   -1.3141 H   0  0  0  0  0  0  0  0  0  0  0  0
   -1.4776    1.6201    3.3644 N   0  0  0  0  0  0  0  0  0  0  0  0
   -1.7810    0.7737    4.5192 C   0  0  2  0  0  0  0  0  0  0  0  0
   -3.1028    1.2347    5.0866 C   0  0  0  0  0  0  0  0  0  0  0  0
   -3.5239    0.5567    6.0612 O   0  0  0  0  0  0  0  0  0  0  0  0
   -0.7237    0.7947    5.5652 C   0  0  0  0  0  0  0  0  0  0  0  0
   -0.4891    2.1323    6.1721 C   0  0  0  0  0  0  0  0  0  0  0  0
   -1.1669    2.5150    7.3086 C   0  0  0  0  0  0  0  0  0  0  0  0
    0.3914    3.0398    5.6361 C   0  0  0  0  0  0  0  0  0  0  0  0
   -0.9309    3.7746    7.8458 C   0  0  0  0  0  0  0  0  0  0  0  0
    0.6347    4.2795    6.1490 C   0  0  0  0  0  0  0  0  0  0  0  0
   -0.0415    4.6647    7.2863 C   0  0  0  0  0  0  0  0  0  0  0  0
    0.2015    5.9290    7.8194 O   0  0  0  0  0  0  0  0  0  0  0  0
   -1.0787    2.5637    3.4236 H   0  0  0  0  0  0  0  0  0  0  0  0
   -1.9438   -0.2481    4.1583 H   0  0  0  0  0  0  0  0  0  0  0  0
    0.2405    0.5348    5.0243 H   0  0  0  0  0  0  0  0  0  0  0  0
   -0.9691    0.0746    6.3633 H   0  0  0  0  0  0  0  0  0  0  0  0
   -1.8660    1.8833    7.8002 H   0  0  0  0  0  0  0  0  0  0  0  0
    0.9209    2.7400    4.7470 H   0  0  0  0  0  0  0  0  0  0  0  0
   -1.4597    4.0864    8.7392 H   0  0  0  0  0  0  0  0  0  0  0  0
    1.3325    4.9368    5.6776 H   0  0  0  0  0  0  0  0  0  0  0  0
    1.1142    6.1050    8.2029 H   0  0  0  0  0  0  0  0  0  0  0  0
   -3.7983    2.3492    4.5474 N   0  0  0  0  0  0  0  0  0  0  0  0
   -5.0536    2.7044    5.1683 C   0  0  2  0  0  0  0  0  0  0  0  0
   -6.1324    2.8100    4.1866 C   0  0  0  0  0  0  0  0  0  0  0  0
   -7.3222    3.0990    4.4296 O   0  0  0  0  0  0  0  0  0  0  0  0
   -4.9333    4.0085    5.9507 C   0  0  0  0  0  0  0  0  0  0  0  0
   -3.3881    2.8584    3.7400 H   0  0  0  0  0  0  0  0  0  0  0  0
   -5.2836    1.9099    5.9187 H   0  0  0  0  0  0  0  0  0  0  0  0
   -5.9306    4.4855    6.0184 H   0  0  0  0  0  0  0  0  0  0  0  0
   -4.4998    3.7489    6.9454 H   0  0  0  0  0  0  0  0  0  0  0  0
   -4.2404    4.7185    5.4895 H   0  0  0  0  0  0  0  0  0  0  0  0
   -5.8051    2.5615    2.8093 N   0  0  0  0  0  0  0  0  0  0  0  0
   -5.2311    3.3245    2.3571 H   0  0  0  0  0  0  0  0  0  0  0  0
   -6.1105    1.7050    2.3127 H   0  0  0  0  0  0  0  0  0  0  0  0
    3.1400    0.5355   -1.8096 H   0  0  0  0  0  0  0  0  0  0  0  0
    3.4491    1.3693   -4.3773 H   0  0  0  0  0  0  0  0  0  0  0  0
    0.4945    1.0512   -4.5424 H   0  0  0  0  0  0  0  0  0  0  0  0
    2.2541   -1.0885   -5.8076 H   0  0  0  0  0  0  0  0  0  0  0  0
    1.2252   -2.6015   -3.6350 H   0  0  0  0  0  0  0  0  0  0  0  0
    2.4569   -1.7522   -1.8264 H   0  0  0  0  0  0  0  0  0  0  0  0
   -0.6722   -1.1703   -4.9821 H   0  0  0  0  0  0  0  0  0  0  0  0
    0.9794   -0.8475   -7.2120 H   0  0  0  0  0  0  0  0  0  0  0  0
   -2.1613   -7.1230   -2.2178 H   0  0  0  0  0  0  0  0  0  0  0  0
   -3.3162   -7.0570   -0.4001 H   0  0  0  0  0  0  0  0  0  0  0  0
   -0.2489   -5.0896    1.1146 H   0  0  0  0  0  0  0  0  0  0  0  0
   -0.3223   -2.3246    0.4842 H   0  0  0  0  0  0  0  0  0  0  0  0
    3.4553    0.5799    3.1341 H   0  0  0  0  0  0  0  0  0  0  0  0
    4.9987   -1.1059    2.9544 H   0  0  0  0  0  0  0  0  0  0  0  0
  1  2  1  0
  1 11  1  6
  1 12  1  0
  1 13  1  0
  2  3  1  0
  2  7  1  0
  3  4  1  0
  3 10  1  0
  4  5  1  0
  4 14  1  0
  5  6  1  0
  5  9  1  0
  6  7  1  0
  6 15  1  0
  7  8  1  0
  8 16  1  1
  8 17  1  0
  8171  1  0
  9 19  1  0
  9 21  1  0
 10 18  1  6
 10 20  1  0
 10118  1  0
 23 38  1  0
 38 39  1  0
 38 46  1  0
 39 40  1  0
 39 44  1  0
 39 47  1  1
 40 41  1  0
 40 48  1  6
 40 49  1  0
 41 42  1  0
 41 50  1  1
 41 51  1  0
 42 43  1  0
 42 52  1  1
 42 53  1  0
 43 54  1  6
 43 55  1  0
 44 45  1  0
 44 57  1  0
 57 58  1  0
 57 65  1  0
 58 59  1  0
 58 61  1  0
 58 66  1  6
 59 60  1  0
 59 76  1  0
 61 62  1  0
 61 67  1  1
 61 68  1  0
 62 63  1  0
 62 69  1  6
 62 70  1  0
 63 64  1  0
 63 71  1  1
 63 72  1  0
 64 73  1  1
 64 74  1  0
 64 75  1  0
 78 97  1  0
 97 98  1  0
 97104  1  0
 98 99  1  0
 98101  1  0
 98105  1  1
 99100  1  0
 99113  1  0
101102  1  0
101106  1  1
101107  1  0
102103  1  0
102108  1  1
102109  1  0
103110  1  6
103111  1  0
199207  1  0
207208  1  0
207209  1  0
 22 21  1  0
 23 22  1  0
 24 23  2  0
 25 22  1  0
 26 25  1  0
 27 26  1  0
 28 26  2  0
 29 27  2  0
 30 28  1  0
 30 29  1  0
 31 21  1  0
 22 32  1  6
 33 25  1  0
 34 25  1  0
 35 28  1  0
 36 29  1  0
 37 30  1  0
 56 43  1  0
 77 76  1  0
 78 77  1  0
 79 78  2  0
 80 77  1  0
 81 80  1  0
 82 81  2  0
 83 81  1  0
 84 82  1  0
 85 83  2  0
 86 85  1  0
 86 84  2  0
 87 86  1  0
 88 76  1  0
 77 89  1  1
 90 80  1  0
 91 80  1  0
 92 82  1  0
 93 83  1  0
 94 84  1  0
 95 85  1  0
 96 87  1  0
112103  1  0
114113  1  0
115114  1  0
116115  2  0
117114  1  0
118117  1  0
119113  1  0
114120  1  1
121117  1  0
122117  1  0
123115  1  0
124123  1  0
125124  1  0
126125  2  0
127124  1  0
128127  1  0
129127  1  0
130128  1  0
131123  1  0
124132  1  1
127133  1  1
134128  1  0
135128  1  0
136129  1  0
137129  1  0
138129  1  0
139130  1  0
140130  1  0
141130  1  0
142125  1  0
143142  1  0
144143  1  0
145144  2  0
146143  1  0
147146  1  0
148147  1  0
149148  1  0
150149  1  0
151150  1  0
152150  2  0
153142  1  0
143154  1  1
155146  1  0
156146  1  0
157147  1  0
158147  1  0
159148  1  0
160148  1  0
161149  1  0
162151  1  0
163151  1  0
164152  1  0
165152  1  0
166144  1  0
167166  1  0
168167  1  0
169168  2  0
170167  1  0
171170  1  0
172166  1  0
167173  1  6
174170  1  0
175170  1  0
176168  1  0
177176  1  0
178177  1  0
179178  2  0
180177  1  0
181180  1  0
182181  2  0
183181  1  0
184182  1  0
185183  2  0
186185  1  0
186184  2  0
187186  1  0
188176  1  0
177189  1  6
190180  1  0
191180  1  0
192182  1  0
193183  1  0
194184  1  0
195185  1  0
196187  1  0
197178  1  0
198197  1  0
199198  1  0
200199  2  0
201198  1  0
202197  1  0
198203  1  1
204201  1  0
205201  1  0
206201  1  0
  2210  1  1
  3211  1  6
  4212  1  0
  5213  1  0
  6214  1  0
  7215  1  0
  9216  1  0
 19217  1  0
 44218  1  0
 45219  1  0
 59220  1  0
 60221  1  0
 99222  1  0
100223  1  0
M  CHG  3  43   1 103   1 152   1
M  END
$$$$
BP70
     RDKit          3D

223228  0  0  0  0  0  0  0  0999 V2000
    0.2370   -1.5563   -4.2491 C   0  0  2  0  0  0  0  0  0  0  0  0
    1.5794   -0.9635   -3.9031 C   0  0  1  0  0  0  0  0  0  0  0  0
    1.6642   -0.3244   -2.5639 C   0  0  1  0  0  0  0  0  0  0  0  0
    2.7940    0.7118   -2.6667 C   0  0  0  0  0  0  0  0  0  0  0  0
    3.8037    0.2275   -3.6889 C   0  0  0  0  0  0  0  0  0  0  0  0
    3.9651   -1.2695   -3.7031 C   0  0  0  0  0  0  0  0  0  0  0  0
    2.6832   -2.0234   -3.9802 C   0  0  0  0  0  0  0  0  0  0  0  0
    2.4743   -3.0620   -2.9448 C   0  0  2  0  0  0  0  0  0  0  0  0
    5.1441    0.8126   -3.3006 C   0  0  0  0  0  0  0  0  0  0  0  0
    0.3697    0.3357   -2.1441 C   0  0  1  0  0  0  0  0  0  0  0  0
    0.4110   -2.1947   -5.1644 H   0  0  0  0  0  0  0  0  0  0  0  0
   -0.4641   -0.7609   -4.5679 H   0  0  0  0  0  0  0  0  0  0  0  0
   -0.2186   -2.1115   -3.4339 H   0  0  0  0  0  0  0  0  0  0  0  0
    3.2750    0.8657   -1.6804 H   0  0  0  0  0  0  0  0  0  0  0  0
    4.4202   -1.5521   -2.7144 H   0  0  0  0  0  0  0  0  0  0  0  0
    1.6456   -2.8170   -2.2319 H   0  0  0  0  0  0  0  0  0  0  0  0
    3.3819   -3.0886   -2.2786 H   0  0  0  0  0  0  0  0  0  0  0  0
    0.0714    1.1508   -2.8078 H   0  0  0  0  0  0  0  0  0  0  0  0
    5.8270    1.0843   -4.4948 O   0  0  0  0  0  0  0  0  0  0  0  0
   -0.3898   -0.5041   -2.2212 H   0  0  0  0  0  0  0  0  0  0  0  0
    4.8803    2.0113   -2.5320 N   0  0  0  0  0  0  0  0  0  0  0  0
    6.0398    2.6979   -2.0697 C   0  0  2  0  0  0  0  0  0  0  0  0
    5.6637    3.9018   -1.3186 C   0  0  0  0  0  0  0  0  0  0  0  0
    6.5678    4.7039   -1.0307 O   0  0  0  0  0  0  0  0  0  0  0  0
    7.1376    2.8935   -3.0806 C   0  0  0  0  0  0  0  0  0  0  0  0
    8.3275    3.6240   -2.5629 C   0  0  0  0  0  0  0  0  0  0  0  0
    8.6087    4.9370   -2.5698 N   0  0  0  0  0  0  0  0  0  0  0  0
    9.4322    3.0427   -1.9290 C   0  0  0  0  0  0  0  0  0  0  0  0
    9.7999    5.1530   -1.9836 C   0  0  0  0  0  0  0  0  0  0  0  0
   10.3153    3.9902   -1.5840 N   0  0  0  0  0  0  0  0  0  0  0  0
    4.3537    2.6694   -3.1837 H   0  0  0  0  0  0  0  0  0  0  0  0
    6.5352    1.9489   -1.3217 H   0  0  0  0  0  0  0  0  0  0  0  0
    6.7332    3.3074   -4.0193 H   0  0  0  0  0  0  0  0  0  0  0  0
    7.5541    1.8713   -3.3579 H   0  0  0  0  0  0  0  0  0  0  0  0
    9.5407    1.9937   -1.7538 H   0  0  0  0  0  0  0  0  0  0  0  0
   10.3156    6.0997   -1.8269 H   0  0  0  0  0  0  0  0  0  0  0  0
   11.2163    3.7833   -1.0948 H   0  0  0  0  0  0  0  0  0  0  0  0
    4.3637    4.2764   -0.8708 N   0  0  0  0  0  0  0  0  0  0  0  0
    4.0404    5.3974   -0.0662 C   0  0  1  0  0  0  0  0  0  0  0  0
    5.1479    6.2548    0.4725 C   0  0  2  0  0  0  0  0  0  0  0  0
    6.0587    5.6430    1.4685 C   0  0  2  0  0  0  0  0  0  0  0  0
    7.1631    6.6465    1.8535 C   0  0  1  0  0  0  0  0  0  0  0  0
    8.0668    6.0273    2.8362 N   0  0  2  0  0  0  0  0  0  0  0  0
    2.8045    6.1575   -0.2628 C   0  0  0  0  0  0  0  0  0  0  0  0
    2.8911    7.2703    0.6493 O   0  0  0  0  0  0  0  0  0  0  0  0
    3.6170    3.6461   -1.1878 H   0  0  0  0  0  0  0  0  0  0  0  0
    3.8135    4.8143    0.9789 H   0  0  0  0  0  0  0  0  0  0  0  0
    4.6712    7.1354    0.9736 H   0  0  0  0  0  0  0  0  0  0  0  0
    5.7173    6.7555   -0.3776 H   0  0  0  0  0  0  0  0  0  0  0  0
    6.4945    4.6852    1.3530 H   0  0  0  0  0  0  0  0  0  0  0  0
    5.4380    5.6023    2.4556 H   0  0  0  0  0  0  0  0  0  0  0  0
    7.6911    6.8810    0.9203 H   0  0  0  0  0  0  0  0  0  0  0  0
    6.6199    7.5086    2.2819 H   0  0  0  0  0  0  0  0  0  0  0  0
    9.0306    6.4972    2.7380 H   0  0  0  0  0  0  0  0  0  0  0  0
    8.1564    4.9858    2.6273 H   0  0  0  0  0  0  0  0  0  0  0  0
    7.6981    6.1951    3.8123 H   0  0  0  0  0  0  0  0  0  0  0  0
    1.5773    5.4748    0.2153 N   0  0  0  0  0  0  0  0  0  0  0  0
    0.4800    6.4312    0.2475 C   0  0  2  0  0  0  0  0  0  0  0  0
   -0.5760    6.1031    1.2671 C   0  0  0  0  0  0  0  0  0  0  0  0
    0.0352    6.0941    2.5250 O   0  0  0  0  0  0  0  0  0  0  0  0
   -0.0090    6.8958   -1.0689 C   0  0  2  0  0  0  0  0  0  0  0  0
   -0.5271    5.8955   -2.0277 C   0  0  1  0  0  0  0  0  0  0  0  0
    0.4657    4.8337   -2.4431 C   0  0  1  0  0  0  0  0  0  0  0  0
   -0.2893    3.9298   -3.4323 C   0  0  2  0  0  0  0  0  0  0  0  0
    1.7641    5.1212    1.1604 H   0  0  0  0  0  0  0  0  0  0  0  0
    0.9666    7.3877    0.6995 H   0  0  0  0  0  0  0  0  0  0  0  0
    0.8502    7.4240   -1.5842 H   0  0  0  0  0  0  0  0  0  0  0  0
   -0.7989    7.6699   -0.8800 H   0  0  0  0  0  0  0  0  0  0  0  0
   -1.4802    5.4246   -1.7916 H   0  0  0  0  0  0  0  0  0  0  0  0
   -0.7314    6.4669   -2.9924 H   0  0  0  0  0  0  0  0  0  0  0  0
    1.3694    5.2540   -2.8964 H   0  0  0  0  0  0  0  0  0  0  0  0
    0.7048    4.2077   -1.5559 H   0  0  0  0  0  0  0  0  0  0  0  0
   -1.0094    3.3406   -2.8012 H   0  0  0  0  0  0  0  0  0  0  0  0
    0.5050    3.2667   -3.8642 H   0  0  0  0  0  0  0  0  0  0  0  0
   -0.7810    4.4834   -4.2283 H   0  0  0  0  0  0  0  0  0  0  0  0
   -1.3367    4.9257    1.0980 N   0  0  0  0  0  0  0  0  0  0  0  0
   -2.0012    4.6470    2.3712 C   0  0  2  0  0  0  0  0  0  0  0  0
   -2.8085    3.4116    2.2976 C   0  0  0  0  0  0  0  0  0  0  0  0
   -3.3875    2.8706    3.2540 O   0  0  0  0  0  0  0  0  0  0  0  0
   -2.7891    5.7760    2.9256 C   0  0  0  0  0  0  0  0  0  0  0  0
   -3.4600    5.4706    4.2195 C   0  0  0  0  0  0  0  0  0  0  0  0
   -4.7314    4.9772    4.3433 C   0  0  0  0  0  0  0  0  0  0  0  0
   -2.6992    5.7206    5.3665 C   0  0  0  0  0  0  0  0  0  0  0  0
   -5.2195    4.7425    5.6179 C   0  0  0  0  0  0  0  0  0  0  0  0
   -3.1989    5.4809    6.6336 C   0  0  0  0  0  0  0  0  0  0  0  0
   -4.4929    4.9788    6.7613 C   0  0  0  0  0  0  0  0  0  0  0  0
   -5.0155    4.7310    8.0233 O   0  0  0  0  0  0  0  0  0  0  0  0
   -2.1543    5.1046    0.4255 H   0  0  0  0  0  0  0  0  0  0  0  0
   -1.1777    4.4123    3.1047 H   0  0  0  0  0  0  0  0  0  0  0  0
   -3.5774    6.0708    2.2052 H   0  0  0  0  0  0  0  0  0  0  0  0
   -2.1693    6.7143    3.0471 H   0  0  0  0  0  0  0  0  0  0  0  0
   -5.3113    4.7941    3.4451 H   0  0  0  0  0  0  0  0  0  0  0  0
   -1.6796    6.1127    5.2878 H   0  0  0  0  0  0  0  0  0  0  0  0
   -6.2388    4.3469    5.7233 H   0  0  0  0  0  0  0  0  0  0  0  0
   -2.5962    5.6775    7.5167 H   0  0  0  0  0  0  0  0  0  0  0  0
   -4.4948    4.0771    8.6261 H   0  0  0  0  0  0  0  0  0  0  0  0
   -3.0052    2.6943    1.0460 N   0  0  0  0  0  0  0  0  0  0  0  0
   -3.7681    1.4644    0.9915 C   0  0  2  0  0  0  0  0  0  0  0  0
   -2.8733    0.3265    0.4819 C   0  0  0  0  0  0  0  0  0  0  0  0
   -2.4143    0.6246   -0.7621 O   0  0  0  0  0  0  0  0  0  0  0  0
   -5.0223    1.5470    0.2099 C   0  0  2  0  0  0  0  0  0  0  0  0
   -4.9142    1.9338   -1.2237 C   0  0  1  0  0  0  0  0  0  0  0  0
   -6.2749    1.9588   -1.8334 N   0  0  2  0  0  0  0  0  0  0  0  0
   -2.5608    3.1355    0.2485 H   0  0  0  0  0  0  0  0  0  0  0  0
   -4.0711    1.1415    2.0294 H   0  0  0  0  0  0  0  0  0  0  0  0
   -5.7320    2.2638    0.7085 H   0  0  0  0  0  0  0  0  0  0  0  0
   -5.5236    0.5438    0.2381 H   0  0  0  0  0  0  0  0  0  0  0  0
   -4.5264    2.9736   -1.3458 H   0  0  0  0  0  0  0  0  0  0  0  0
   -4.3497    1.2795   -1.8765 H   0  0  0  0  0  0  0  0  0  0  0  0
   -6.3956    1.1235   -2.4743 H   0  0  0  0  0  0  0  0  0  0  0  0
   -6.4160    2.8656   -2.3495 H   0  0  0  0  0  0  0  0  0  0  0  0
   -6.9865    1.8884   -1.0278 H   0  0  0  0  0  0  0  0  0  0  0  0
   -1.9523   -0.0831    1.4715 N   0  0  0  0  0  0  0  0  0  0  0  0
   -0.9029   -0.9814    1.1364 C   0  0  2  0  0  0  0  0  0  0  0  0
   -0.5930   -1.8554    2.3657 C   0  0  0  0  0  0  0  0  0  0  0  0
   -1.1790   -1.6677    3.4272 O   0  0  0  0  0  0  0  0  0  0  0  0
    0.3979   -0.2265    0.8465 C   0  0  0  0  0  0  0  0  0  0  0  0
    0.3956    0.9184   -0.4770 S   0  0  0  0  0  0  0  0  0  0  0  0
   -1.6979    0.6117    2.1879 H   0  0  0  0  0  0  0  0  0  0  0  0
   -1.1309   -1.6064    0.2823 H   0  0  0  0  0  0  0  0  0  0  0  0
    0.6165    0.3163    1.8012 H   0  0  0  0  0  0  0  0  0  0  0  0
    1.2385   -0.9447    0.7196 H   0  0  0  0  0  0  0  0  0  0  0  0
    0.3590   -2.8893    2.3038 N   0  0  0  0  0  0  0  0  0  0  0  0
    0.7778   -3.7831    3.3534 C   0  0  2  0  0  0  0  0  0  0  0  0
    0.2785   -5.1616    3.1258 C   0  0  0  0  0  0  0  0  0  0  0  0
    0.6002   -6.1751    3.7461 O   0  0  0  0  0  0  0  0  0  0  0  0
    0.5768   -3.2714    4.7574 C   0  0  2  0  0  0  0  0  0  0  0  0
    1.4068   -2.0192    4.9254 C   0  0  0  0  0  0  0  0  0  0  0  0
    1.2291   -4.3248    5.6751 C   0  0  0  0  0  0  0  0  0  0  0  0
    1.2571   -1.4148    6.3105 C   0  0  0  0  0  0  0  0  0  0  0  0
    0.8053   -3.0082    1.3774 H   0  0  0  0  0  0  0  0  0  0  0  0
    1.9073   -3.7993    3.2635 H   0  0  0  0  0  0  0  0  0  0  0  0
   -0.4694   -3.1168    5.0397 H   0  0  0  0  0  0  0  0  0  0  0  0
    2.5179   -2.2903    4.8835 H   0  0  0  0  0  0  0  0  0  0  0  0
    1.2928   -1.2508    4.1742 H   0  0  0  0  0  0  0  0  0  0  0  0
    1.4749   -3.8649    6.6584 H   0  0  0  0  0  0  0  0  0  0  0  0
    0.5672   -5.1937    5.8411 H   0  0  0  0  0  0  0  0  0  0  0  0
    2.1219   -4.6840    5.1300 H   0  0  0  0  0  0  0  0  0  0  0  0
    1.5865   -0.3379    6.2130 H   0  0  0  0  0  0  0  0  0  0  0  0
    1.9798   -1.8598    7.0304 H   0  0  0  0  0  0  0  0  0  0  0  0
    0.2290   -1.3864    6.6732 H   0  0  0  0  0  0  0  0  0  0  0  0
   -0.6720   -5.3307    2.0955 N   0  0  0  0  0  0  0  0  0  0  0  0
   -1.2686   -6.5539    1.6053 C   0  0  2  0  0  0  0  0  0  0  0  0
   -1.0054   -6.6332    0.1141 C   0  0  0  0  0  0  0  0  0  0  0  0
   -1.5193   -7.4287   -0.6510 O   0  0  0  0  0  0  0  0  0  0  0  0
   -2.7665   -6.5290    1.8382 C   0  0  0  0  0  0  0  0  0  0  0  0
   -2.9994   -6.4112    3.3418 C   0  0  0  0  0  0  0  0  0  0  0  0
   -4.4557   -6.3675    3.6766 C   0  0  0  0  0  0  0  0  0  0  0  0
   -5.1946   -5.2767    3.1291 N   0  0  0  0  0  0  0  0  0  0  0  0
   -5.0543   -3.9181    3.4455 C   0  0  0  0  0  0  0  0  0  0  0  0
   -5.9124   -2.9655    2.7779 N   0  0  0  0  0  0  0  0  0  0  0  0
   -4.2189   -3.4628    4.3001 N   0  0  0  0  0  0  0  0  0  0  0  0
   -0.9904   -4.4580    1.6334 H   0  0  0  0  0  0  0  0  0  0  0  0
   -0.8551   -7.4648    2.0809 H   0  0  0  0  0  0  0  0  0  0  0  0
   -3.1948   -7.4734    1.5122 H   0  0  0  0  0  0  0  0  0  0  0  0
   -3.1718   -5.6549    1.3310 H   0  0  0  0  0  0  0  0  0  0  0  0
   -2.4641   -5.5799    3.7691 H   0  0  0  0  0  0  0  0  0  0  0  0
   -2.5403   -7.3498    3.8051 H   0  0  0  0  0  0  0  0  0  0  0  0
   -4.9393   -7.3267    3.3774 H   0  0  0  0  0  0  0  0  0  0  0  0
   -4.5859   -6.3403    4.8091 H   0  0  0  0  0  0  0  0  0  0  0  0
   -5.9316   -5.5167    2.4089 H   0  0  0  0  0  0  0  0  0  0  0  0
   -6.4753   -3.2053    1.9394 H   0  0  0  0  0  0  0  0  0  0  0  0
   -5.9947   -1.9761    3.1328 H   0  0  0  0  0  0  0  0  0  0  0  0
   -4.2019   -2.4304    4.4529 H   0  0  0  0  0  0  0  0  0  0  0  0
   -3.5575   -4.0069    4.8803 H   0  0  0  0  0  0  0  0  0  0  0  0
   -0.0783   -5.7117   -0.4070 N   0  0  0  0  0  0  0  0  0  0  0  0
    0.3725   -5.3941   -1.7053 C   0  0  2  0  0  0  0  0  0  0  0  0
   -0.5766   -5.6197   -2.8085 C   0  0  0  0  0  0  0  0  0  0  0  0
   -0.0551   -5.8757   -3.9431 O   0  0  0  0  0  0  0  0  0  0  0  0
    1.7764   -5.7970   -2.0625 C   0  0  0  0  0  0  0  0  0  0  0  0
    2.3019   -4.7738   -3.5358 S   0  0  0  0  0  0  0  0  0  0  0  0
    0.3979   -5.1398    0.3769 H   0  0  0  0  0  0  0  0  0  0  0  0
    0.3965   -4.2167   -1.7162 H   0  0  0  0  0  0  0  0  0  0  0  0
    2.5221   -5.6164   -1.3094 H   0  0  0  0  0  0  0  0  0  0  0  0
    1.7718   -6.8412   -2.3915 H   0  0  0  0  0  0  0  0  0  0  0  0
   -1.9824   -5.5766   -2.7716 N   0  0  0  0  0  0  0  0  0  0  0  0
   -2.6812   -5.8582   -4.0151 C   0  0  2  0  0  0  0  0  0  0  0  0
   -2.8263   -4.4898   -4.6672 C   0  0  0  0  0  0  0  0  0  0  0  0
   -2.5052   -3.4457   -4.0420 O   0  0  0  0  0  0  0  0  0  0  0  0
   -4.0278   -6.4119   -3.7197 C   0  0  0  0  0  0  0  0  0  0  0  0
   -4.8979   -5.4989   -2.9351 C   0  0  0  0  0  0  0  0  0  0  0  0
   -5.7075   -4.5484   -3.5431 C   0  0  0  0  0  0  0  0  0  0  0  0
   -4.9524   -5.5387   -1.5526 C   0  0  0  0  0  0  0  0  0  0  0  0
   -6.5226   -3.6855   -2.8633 C   0  0  0  0  0  0  0  0  0  0  0  0
   -5.7737   -4.6696   -0.8688 C   0  0  0  0  0  0  0  0  0  0  0  0
   -6.5724   -3.7315   -1.4795 C   0  0  0  0  0  0  0  0  0  0  0  0
   -7.3990   -2.8545   -0.8115 O   0  0  0  0  0  0  0  0  0  0  0  0
   -2.4400   -5.3254   -1.8818 H   0  0  0  0  0  0  0  0  0  0  0  0
   -2.0221   -6.4670   -4.6446 H   0  0  0  0  0  0  0  0  0  0  0  0
   -4.5632   -6.7001   -4.6485 H   0  0  0  0  0  0  0  0  0  0  0  0
   -3.9440   -7.3584   -3.1324 H   0  0  0  0  0  0  0  0  0  0  0  0
   -5.7086   -4.4828   -4.6222 H   0  0  0  0  0  0  0  0  0  0  0  0
   -4.3727   -6.2458   -0.9637 H   0  0  0  0  0  0  0  0  0  0  0  0
   -7.1311   -2.9710   -3.3700 H   0  0  0  0  0  0  0  0  0  0  0  0
   -5.8008   -4.7184    0.1985 H   0  0  0  0  0  0  0  0  0  0  0  0
   -8.4050   -2.9917   -0.8702 H   0  0  0  0  0  0  0  0  0  0  0  0
   -3.3245   -4.3956   -5.9991 N   0  0  0  0  0  0  0  0  0  0  0  0
   -3.4738   -3.1266   -6.6690 C   0  0  2  0  0  0  0  0  0  0  0  0
   -4.7914   -3.0195   -7.2991 C   0  0  0  0  0  0  0  0  0  0  0  0
   -5.6896   -3.8923   -7.2857 O   0  0  0  0  0  0  0  0  0  0  0  0
   -2.3940   -3.1169   -7.7646 C   0  0  0  0  0  0  0  0  0  0  0  0
   -3.5867   -5.2667   -6.5032 H   0  0  0  0  0  0  0  0  0  0  0  0
   -3.2625   -2.3286   -5.9256 H   0  0  0  0  0  0  0  0  0  0  0  0
   -2.3308   -2.0900   -8.1192 H   0  0  0  0  0  0  0  0  0  0  0  0
   -2.7069   -3.8030   -8.5552 H   0  0  0  0  0  0  0  0  0  0  0  0
   -1.4784   -3.4800   -7.2523 H   0  0  0  0  0  0  0  0  0  0  0  0
   -5.1079   -1.8056   -8.0088 N   0  0  0  0  0  0  0  0  0  0  0  0
   -5.8063   -1.1682   -7.5796 H   0  0  0  0  0  0  0  0  0  0  0  0
   -4.6231   -1.6319   -8.9159 H   0  0  0  0  0  0  0  0  0  0  0  0
    1.7941   -0.2293   -4.6900 H   0  0  0  0  0  0  0  0  0  0  0  0
    1.9721   -0.9689   -1.7219 H   0  0  0  0  0  0  0  0  0  0  0  0
    2.3773    1.6938   -2.9798 H   0  0  0  0  0  0  0  0  0  0  0  0
    3.5831    0.6381   -4.6998 H   0  0  0  0  0  0  0  0  0  0  0  0
    4.7599   -1.4857   -4.4461 H   0  0  0  0  0  0  0  0  0  0  0  0
    2.7061   -2.4648   -4.9787 H   0  0  0  0  0  0  0  0  0  0  0  0
    5.6801    0.0677   -2.6660 H   0  0  0  0  0  0  0  0  0  0  0  0
    5.3736    0.6675   -5.2826 H   0  0  0  0  0  0  0  0  0  0  0  0
    2.6323    6.5995   -1.2493 H   0  0  0  0  0  0  0  0  0  0  0  0
    2.7413    6.8441    1.5392 H   0  0  0  0  0  0  0  0  0  0  0  0
   -1.3229    6.9581    1.3222 H   0  0  0  0  0  0  0  0  0  0  0  0
    0.4837    6.9428    2.6976 H   0  0  0  0  0  0  0  0  0  0  0  0
   -3.6365   -0.5162    0.3220 H   0  0  0  0  0  0  0  0  0  0  0  0
   -2.5383   -0.1167   -1.4208 H   0  0  0  0  0  0  0  0  0  0  0  0
  1  2  1  0
  1 11  1  6
  1 12  1  0
  1 13  1  0
  2  3  1  0
  2  7  1  0
  3  4  1  0
  3 10  1  0
  4  5  1  0
  4 14  1  0
  5  6  1  0
  5  9  1  0
  6  7  1  0
  6 15  1  0
  7  8  1  0
  8 16  1  1
  8 17  1  0
  8171  1  0
  9 19  1  0
  9 21  1  0
 10 18  1  6
 10 20  1  0
 10118  1  0
 23 38  1  0
 38 39  1  0
 38 46  1  0
 39 40  1  0
 39 44  1  0
 39 47  1  1
 40 41  1  0
 40 48  1  1
 40 49  1  0
 41 42  1  0
 41 50  1  6
 41 51  1  0
 42 43  1  0
 42 52  1  6
 42 53  1  0
 43 54  1  1
 43 55  1  0
 44 45  1  0
 44 57  1  0
 57 58  1  0
 57 65  1  0
 58 59  1  0
 58 61  1  0
 58 66  1  1
 59 60  1  0
 59 76  1  0
 61 62  1  0
 61 67  1  6
 61 68  1  0
 62 63  1  0
 62 69  1  1
 62 70  1  0
 63 64  1  0
 63 71  1  6
 63 72  1  0
 64 73  1  1
 64 74  1  0
 64 75  1  0
 78 97  1  0
 97 98  1  0
 97104  1  0
 98 99  1  0
 98101  1  0
 98105  1  1
 99100  1  0
 99113  1  0
101102  1  0
101106  1  1
101107  1  0
102103  1  0
102108  1  1
102109  1  0
103110  1  6
103111  1  0
199207  1  0
207208  1  0
207209  1  0
 22 21  1  0
 23 22  1  0
 24 23  2  0
 25 22  1  0
 26 25  1  0
 27 26  1  0
 28 26  2  0
 29 27  2  0
 30 28  1  0
 30 29  1  0
 31 21  1  0
 22 32  1  1
 33 25  1  0
 34 25  1  0
 35 28  1  0
 36 29  1  0
 37 30  1  0
 56 43  1  0
 77 76  1  0
 78 77  1  0
 79 78  2  0
 80 77  1  0
 81 80  1  0
 82 81  2  0
 83 81  1  0
 84 82  1  0
 85 83  2  0
 86 85  1  0
 86 84  2  0
 87 86  1  0
 88 76  1  0
 77 89  1  1
 90 80  1  0
 91 80  1  0
 92 82  1  0
 93 83  1  0
 94 84  1  0
 95 85  1  0
 96 87  1  0
112103  1  0
114113  1  0
115114  1  0
116115  2  0
117114  1  0
118117  1  0
119113  1  0
114120  1  6
121117  1  0
122117  1  0
123115  1  0
124123  1  0
125124  1  0
126125  2  0
127124  1  0
128127  1  0
129127  1  0
130128  1  0
131123  1  0
124132  1  6
127133  1  1
134128  1  0
135128  1  0
136129  1  0
137129  1  0
138129  1  0
139130  1  0
140130  1  0
141130  1  0
142125  1  0
143142  1  0
144143  1  0
145144  2  0
146143  1  0
147146  1  0
148147  1  0
149148  1  0
150149  1  0
151150  1  0
152150  2  0
153142  1  0
143154  1  1
155146  1  0
156146  1  0
157147  1  0
158147  1  0
159148  1  0
160148  1  0
161149  1  0
162151  1  0
163151  1  0
164152  1  0
165152  1  0
166144  1  0
167166  1  0
168167  1  0
169168  2  0
170167  1  0
171170  1  0
172166  1  0
167173  1  1
174170  1  0
175170  1  0
176168  1  0
177176  1  0
178177  1  0
179178  2  0
180177  1  0
181180  1  0
182181  2  0
183181  1  0
184182  1  0
185183  2  0
186185  1  0
186184  2  0
187186  1  0
188176  1  0
177189  1  6
190180  1  0
191180  1  0
192182  1  0
193183  1  0
194184  1  0
195185  1  0
196187  1  0
197178  1  0
198197  1  0
199198  1  0
200199  2  0
201198  1  0
202197  1  0
198203  1  1
204201  1  0
205201  1  0
206201  1  0
  2210  1  6
  3211  1  1
  4212  1  0
  5213  1  0
  6214  1  0
  7215  1  0
  9216  1  0
 19217  1  0
 44218  1  0
 45219  1  0
 59220  1  0
 60221  1  0
 99222  1  0
100223  1  0
M  CHG  3  43   1 103   1 152   1
M  END
$$$$
BP70
     RDKit          3D

223228  0  0  0  0  0  0  0  0999 V2000
   -0.6319    0.5524    0.5198 C   0  0  2  0  0  0  0  0  0  0  0  0
   -1.6559    1.5402    0.0470 C   0  0  1  0  0  0  0  0  0  0  0  0
   -2.3291    1.2120   -1.2314 C   0  0  1  0  0  0  0  0  0  0  0  0
   -3.0043    2.4786   -1.7247 C   0  0  0  0  0  0  0  0  0  0  0  0
   -3.5808    3.3413   -0.6572 C   0  0  0  0  0  0  0  0  0  0  0  0
   -3.8219    2.6193    0.6349 C   0  0  0  0  0  0  0  0  0  0  0  0
   -2.6592    1.8567    1.1381 C   0  0  0  0  0  0  0  0  0  0  0  0
   -2.9855    0.6945    2.0247 C   0  0  2  0  0  0  0  0  0  0  0  0
   -2.8950    4.6740   -0.5422 C   0  0  0  0  0  0  0  0  0  0  0  0
   -1.2933    0.8624   -2.2835 C   0  0  1  0  0  0  0  0  0  0  0  0
   -0.9024   -0.4791    0.3459 H   0  0  0  0  0  0  0  0  0  0  0  0
   -0.3962    0.7118    1.6100 H   0  0  0  0  0  0  0  0  0  0  0  0
    0.3604    0.7341    0.0268 H   0  0  0  0  0  0  0  0  0  0  0  0
   -2.2326    3.0926   -2.2782 H   0  0  0  0  0  0  0  0  0  0  0  0
   -4.6703    1.8967    0.4543 H   0  0  0  0  0  0  0  0  0  0  0  0
   -2.8003    0.9642    3.1030 H   0  0  0  0  0  0  0  0  0  0  0  0
   -2.2319   -0.1060    1.8365 H   0  0  0  0  0  0  0  0  0  0  0  0
   -1.0728    1.7581   -2.8806 H   0  0  0  0  0  0  0  0  0  0  0  0
   -3.3124    5.5239   -1.6167 O   0  0  0  0  0  0  0  0  0  0  0  0
   -0.3362    0.5281   -1.8202 H   0  0  0  0  0  0  0  0  0  0  0  0
   -3.2411    5.4340    0.6431 N   0  0  0  0  0  0  0  0  0  0  0  0
   -2.5130    6.6864    0.6222 C   0  0  2  0  0  0  0  0  0  0  0  0
   -1.0729    6.5905    0.9070 C   0  0  0  0  0  0  0  0  0  0  0  0
   -0.3540    7.5894    0.7305 O   0  0  0  0  0  0  0  0  0  0  0  0
   -3.1956    7.5578    1.6901 C   0  0  0  0  0  0  0  0  0  0  0  0
   -2.5429    8.8769    1.7727 C   0  0  0  0  0  0  0  0  0  0  0  0
   -2.8445    9.9761    1.0781 N   0  0  0  0  0  0  0  0  0  0  0  0
   -1.4736    9.2504    2.5983 C   0  0  0  0  0  0  0  0  0  0  0  0
   -2.0424   10.9845    1.4226 C   0  0  0  0  0  0  0  0  0  0  0  0
   -1.1932   10.5491    2.3580 N   0  0  0  0  0  0  0  0  0  0  0  0
   -3.0225    4.9845    1.5328 H   0  0  0  0  0  0  0  0  0  0  0  0
   -2.6195    7.1721   -0.3794 H   0  0  0  0  0  0  0  0  0  0  0  0
   -2.9440    7.0302    2.6485 H   0  0  0  0  0  0  0  0  0  0  0  0
   -4.2597    7.5751    1.4903 H   0  0  0  0  0  0  0  0  0  0  0  0
   -0.9418    8.6383    3.3156 H   0  0  0  0  0  0  0  0  0  0  0  0
   -2.0655   11.9761    1.0217 H   0  0  0  0  0  0  0  0  0  0  0  0
   -0.4478   11.0879    2.8333 H   0  0  0  0  0  0  0  0  0  0  0  0
   -0.3904    5.4390    1.3835 N   0  0  0  0  0  0  0  0  0  0  0  0
    1.0924    5.4614    1.6074 C   0  0  1  0  0  0  0  0  0  0  0  0
    1.2574    5.3086    3.0822 C   0  0  2  0  0  0  0  0  0  0  0  0
    2.6316    5.2870    3.6210 C   0  0  2  0  0  0  0  0  0  0  0  0
    3.4597    6.5102    3.3626 C   0  0  1  0  0  0  0  0  0  0  0  0
    4.7867    6.2889    3.9980 N   0  0  2  0  0  0  0  0  0  0  0  0
    1.6664    4.4189    0.7390 C   0  0  0  0  0  0  0  0  0  0  0  0
    1.2281    3.1218    1.0779 O   0  0  0  0  0  0  0  0  0  0  0  0
   -0.9548    4.6239    1.5613 H   0  0  0  0  0  0  0  0  0  0  0  0
    1.4771    6.4499    1.3290 H   0  0  0  0  0  0  0  0  0  0  0  0
    0.7307    4.3887    3.4249 H   0  0  0  0  0  0  0  0  0  0  0  0
    0.7611    6.2227    3.5344 H   0  0  0  0  0  0  0  0  0  0  0  0
    3.2361    4.3808    3.4011 H   0  0  0  0  0  0  0  0  0  0  0  0
    2.5199    5.2436    4.7537 H   0  0  0  0  0  0  0  0  0  0  0  0
    3.6151    6.6877    2.2831 H   0  0  0  0  0  0  0  0  0  0  0  0
    2.9793    7.3903    3.8464 H   0  0  0  0  0  0  0  0  0  0  0  0
    5.5401    6.2884    3.2605 H   0  0  0  0  0  0  0  0  0  0  0  0
    4.7798    5.3713    4.5316 H   0  0  0  0  0  0  0  0  0  0  0  0
    4.9577    7.0935    4.6880 H   0  0  0  0  0  0  0  0  0  0  0  0
    3.0487    4.4541    0.3698 N   0  0  0  0  0  0  0  0  0  0  0  0
    3.2568    3.4076   -0.7025 C   0  0  2  0  0  0  0  0  0  0  0  0
    4.1459    2.3135   -0.2593 C   0  0  0  0  0  0  0  0  0  0  0  0
    3.5422    1.9113    1.0225 O   0  0  0  0  0  0  0  0  0  0  0  0
    3.7838    4.2440   -1.8494 C   0  0  2  0  0  0  0  0  0  0  0  0
    5.0664    4.9641   -1.4737 C   0  0  1  0  0  0  0  0  0  0  0  0
    5.4956    5.7787   -2.6746 C   0  0  1  0  0  0  0  0  0  0  0  0
    4.4375    6.7917   -3.0489 C   0  0  2  0  0  0  0  0  0  0  0  0
    3.7241    4.1823    1.0918 H   0  0  0  0  0  0  0  0  0  0  0  0
    2.2557    3.0666   -0.9287 H   0  0  0  0  0  0  0  0  0  0  0  0
    3.0057    5.0532   -1.9792 H   0  0  0  0  0  0  0  0  0  0  0  0
    3.9312    3.7693   -2.7938 H   0  0  0  0  0  0  0  0  0  0  0  0
    4.8643    5.6565   -0.6390 H   0  0  0  0  0  0  0  0  0  0  0  0
    5.8739    4.2811   -1.2140 H   0  0  0  0  0  0  0  0  0  0  0  0
    6.4803    6.2551   -2.5031 H   0  0  0  0  0  0  0  0  0  0  0  0
    5.5519    5.0540   -3.5224 H   0  0  0  0  0  0  0  0  0  0  0  0
    3.7217    6.3702   -3.8065 H   0  0  0  0  0  0  0  0  0  0  0  0
    4.9476    7.6392   -3.5788 H   0  0  0  0  0  0  0  0  0  0  0  0
    3.8249    7.1103   -2.1952 H   0  0  0  0  0  0  0  0  0  0  0  0
    4.2113    1.1077   -0.9505 N   0  0  0  0  0  0  0  0  0  0  0  0
    4.4700    0.8267   -2.2693 C   0  0  2  0  0  0  0  0  0  0  0  0
    3.4015    1.0789   -3.2735 C   0  0  0  0  0  0  0  0  0  0  0  0
    2.3187    1.6359   -3.0393 O   0  0  0  0  0  0  0  0  0  0  0  0
    5.0034   -0.6137   -2.4125 C   0  0  0  0  0  0  0  0  0  0  0  0
    6.2583   -0.7534   -1.6560 C   0  0  0  0  0  0  0  0  0  0  0  0
    7.4331   -0.4589   -2.3683 C   0  0  0  0  0  0  0  0  0  0  0  0
    6.3549   -1.1620   -0.3538 C   0  0  0  0  0  0  0  0  0  0  0  0
    8.6619   -0.5787   -1.7681 C   0  0  0  0  0  0  0  0  0  0  0  0
    7.6062   -1.2718    0.2192 C   0  0  0  0  0  0  0  0  0  0  0  0
    8.7635   -0.9901   -0.4555 C   0  0  0  0  0  0  0  0  0  0  0  0
   10.0334   -1.0880    0.0808 O   0  0  0  0  0  0  0  0  0  0  0  0
    3.8921    0.2589   -0.3738 H   0  0  0  0  0  0  0  0  0  0  0  0
    5.3435    1.4952   -2.6038 H   0  0  0  0  0  0  0  0  0  0  0  0
    4.2312   -1.3028   -2.0358 H   0  0  0  0  0  0  0  0  0  0  0  0
    5.1914   -0.8647   -3.4757 H   0  0  0  0  0  0  0  0  0  0  0  0
    7.3720   -0.1283   -3.4205 H   0  0  0  0  0  0  0  0  0  0  0  0
    5.4870   -1.3969    0.2196 H   0  0  0  0  0  0  0  0  0  0  0  0
    9.5274   -0.3428   -2.3713 H   0  0  0  0  0  0  0  0  0  0  0  0
    7.6562   -1.6023    1.2521 H   0  0  0  0  0  0  0  0  0  0  0  0
   10.3965   -0.3753    0.7136 H   0  0  0  0  0  0  0  0  0  0  0  0
    3.5343    0.6773   -4.6518 N   0  0  0  0  0  0  0  0  0  0  0  0
    2.4920    1.0217   -5.6500 C   0  0  2  0  0  0  0  0  0  0  0  0
    1.9273   -0.2061   -6.3093 C   0  0  0  0  0  0  0  0  0  0  0  0
    0.9976    0.1081   -7.2813 O   0  0  0  0  0  0  0  0  0  0  0  0
    3.2854    1.7884   -6.6884 C   0  0  2  0  0  0  0  0  0  0  0  0
    2.5605    2.3321   -7.8480 C   0  0  1  0  0  0  0  0  0  0  0  0
    1.5276    3.3246   -7.4492 N   0  0  2  0  0  0  0  0  0  0  0  0
    4.3706    0.1637   -4.8782 H   0  0  0  0  0  0  0  0  0  0  0  0
    1.6976    1.6035   -5.1944 H   0  0  0  0  0  0  0  0  0  0  0  0
    4.1344    1.1656   -7.0794 H   0  0  0  0  0  0  0  0  0  0  0  0
    3.8282    2.6584   -6.2059 H   0  0  0  0  0  0  0  0  0  0  0  0
    3.2770    2.9667   -8.4625 H   0  0  0  0  0  0  0  0  0  0  0  0
    2.1626    1.6171   -8.5739 H   0  0  0  0  0  0  0  0  0  0  0  0
    1.1343    3.0534   -6.5048 H   0  0  0  0  0  0  0  0  0  0  0  0
    0.7847    3.3586   -8.1943 H   0  0  0  0  0  0  0  0  0  0  0  0
    1.9988    4.2934   -7.3607 H   0  0  0  0  0  0  0  0  0  0  0  0
    1.5927   -1.1964   -5.4251 N   0  0  0  0  0  0  0  0  0  0  0  0
    0.6399   -1.1296   -4.3718 C   0  0  2  0  0  0  0  0  0  0  0  0
    0.6260   -2.5519   -3.8534 C   0  0  0  0  0  0  0  0  0  0  0  0
    1.0780   -3.4547   -4.5676 O   0  0  0  0  0  0  0  0  0  0  0  0
   -0.6937   -0.6336   -4.7523 C   0  0  0  0  0  0  0  0  0  0  0  0
   -1.8189   -0.4860   -3.3650 S   0  0  0  0  0  0  0  0  0  0  0  0
    2.3925   -1.7920   -5.1671 H   0  0  0  0  0  0  0  0  0  0  0  0
    1.0315   -0.5451   -3.5454 H   0  0  0  0  0  0  0  0  0  0  0  0
   -1.2236   -1.2559   -5.5076 H   0  0  0  0  0  0  0  0  0  0  0  0
   -0.5682    0.4178   -5.1073 H   0  0  0  0  0  0  0  0  0  0  0  0
    0.1354   -2.9433   -2.5803 N   0  0  0  0  0  0  0  0  0  0  0  0
    0.1148   -4.3134   -2.1023 C   0  0  2  0  0  0  0  0  0  0  0  0
   -1.1323   -4.6764   -1.3939 C   0  0  0  0  0  0  0  0  0  0  0  0
   -1.2588   -5.7594   -0.8285 O   0  0  0  0  0  0  0  0  0  0  0  0
    1.3425   -4.6445   -1.3324 C   0  0  2  0  0  0  0  0  0  0  0  0
    1.6434   -3.8567   -0.1171 C   0  0  0  0  0  0  0  0  0  0  0  0
    2.5429   -4.6555   -2.2332 C   0  0  0  0  0  0  0  0  0  0  0  0
    1.8358   -2.3910   -0.2948 C   0  0  0  0  0  0  0  0  0  0  0  0
   -0.2145   -2.1716   -2.0003 H   0  0  0  0  0  0  0  0  0  0  0  0
    0.1731   -4.9613   -3.0245 H   0  0  0  0  0  0  0  0  0  0  0  0
    1.2168   -5.7104   -0.9919 H   0  0  0  0  0  0  0  0  0  0  0  0
    0.9566   -4.0454    0.7495 H   0  0  0  0  0  0  0  0  0  0  0  0
    2.6305   -4.2728    0.2679 H   0  0  0  0  0  0  0  0  0  0  0  0
    3.4061   -5.0640   -1.6209 H   0  0  0  0  0  0  0  0  0  0  0  0
    2.4167   -5.3016   -3.1129 H   0  0  0  0  0  0  0  0  0  0  0  0
    2.8971   -3.6720   -2.5578 H   0  0  0  0  0  0  0  0  0  0  0  0
    2.1428   -2.1409   -1.3210 H   0  0  0  0  0  0  0  0  0  0  0  0
    0.9941   -1.7746    0.0388 H   0  0  0  0  0  0  0  0  0  0  0  0
    2.6895   -2.0760    0.3737 H   0  0  0  0  0  0  0  0  0  0  0  0
   -2.2284   -3.7850   -1.3408 N   0  0  0  0  0  0  0  0  0  0  0  0
   -3.4812   -3.9781   -0.6583 C   0  0  2  0  0  0  0  0  0  0  0  0
   -3.2838   -3.2626    0.6513 C   0  0  0  0  0  0  0  0  0  0  0  0
   -2.1821   -2.7604    0.8516 O   0  0  0  0  0  0  0  0  0  0  0  0
   -3.9312   -5.3540   -0.4161 C   0  0  0  0  0  0  0  0  0  0  0  0
   -4.1932   -6.2293   -1.5853 C   0  0  0  0  0  0  0  0  0  0  0  0
   -5.2646   -5.7895   -2.5380 C   0  0  0  0  0  0  0  0  0  0  0  0
   -4.9941   -4.6011   -3.2653 N   0  0  0  0  0  0  0  0  0  0  0  0
   -6.0309   -4.1088   -4.1253 C   0  0  0  0  0  0  0  0  0  0  0  0
   -5.8213   -2.9155   -4.8799 N   0  0  0  0  0  0  0  0  0  0  0  0
   -7.1622   -4.6913   -4.2574 N   0  0  0  0  0  0  0  0  0  0  0  0
   -2.0982   -2.9074   -1.8550 H   0  0  0  0  0  0  0  0  0  0  0  0
   -4.2670   -3.3711   -1.1858 H   0  0  0  0  0  0  0  0  0  0  0  0
   -4.9466   -5.2621    0.1066 H   0  0  0  0  0  0  0  0  0  0  0  0
   -3.3310   -5.8849    0.3768 H   0  0  0  0  0  0  0  0  0  0  0  0
   -3.3074   -6.4420   -2.2417 H   0  0  0  0  0  0  0  0  0  0  0  0
   -4.5017   -7.2541   -1.1656 H   0  0  0  0  0  0  0  0  0  0  0  0
   -5.3899   -6.6159   -3.3031 H   0  0  0  0  0  0  0  0  0  0  0  0
   -6.2582   -5.7395   -2.0100 H   0  0  0  0  0  0  0  0  0  0  0  0
   -4.1177   -4.0429   -3.2775 H   0  0  0  0  0  0  0  0  0  0  0  0
   -5.5970   -1.9894   -4.4125 H   0  0  0  0  0  0  0  0  0  0  0  0
   -5.9016   -2.9969   -5.9248 H   0  0  0  0  0  0  0  0  0  0  0  0
   -7.3299   -5.5768   -3.7008 H   0  0  0  0  0  0  0  0  0  0  0  0
   -7.9091   -4.3442   -4.8722 H   0  0  0  0  0  0  0  0  0  0  0  0
   -4.2601   -3.1258    1.6626 N   0  0  0  0  0  0  0  0  0  0  0  0
   -3.9367   -2.3813    2.8649 C   0  0  2  0  0  0  0  0  0  0  0  0
   -3.4053   -3.3077    3.8539 C   0  0  0  0  0  0  0  0  0  0  0  0
   -3.2088   -4.5201    3.4858 O   0  0  0  0  0  0  0  0  0  0  0  0
   -4.7979   -1.2660    3.2231 C   0  0  0  0  0  0  0  0  0  0  0  0
   -4.6706    0.0853    1.9545 S   0  0  0  0  0  0  0  0  0  0  0  0
   -5.1582   -3.5805    1.4649 H   0  0  0  0  0  0  0  0  0  0  0  0
   -2.9206   -1.8141    2.6005 H   0  0  0  0  0  0  0  0  0  0  0  0
   -5.8813   -1.5833    3.1601 H   0  0  0  0  0  0  0  0  0  0  0  0
   -4.6561   -0.7815    4.1770 H   0  0  0  0  0  0  0  0  0  0  0  0
   -3.0729   -3.0032    5.1928 N   0  0  0  0  0  0  0  0  0  0  0  0
   -2.4878   -4.0426    6.0869 C   0  0  2  0  0  0  0  0  0  0  0  0
   -3.5168   -4.7325    6.8605 C   0  0  0  0  0  0  0  0  0  0  0  0
   -4.7264   -4.3369    6.9128 O   0  0  0  0  0  0  0  0  0  0  0  0
   -1.3302   -3.4523    6.7969 C   0  0  0  0  0  0  0  0  0  0  0  0
   -0.5859   -4.2791    7.7366 C   0  0  0  0  0  0  0  0  0  0  0  0
   -0.9312   -4.2387    9.0951 C   0  0  0  0  0  0  0  0  0  0  0  0
    0.4810   -5.0730    7.3467 C   0  0  0  0  0  0  0  0  0  0  0  0
   -0.1853   -4.9903    9.9639 C   0  0  0  0  0  0  0  0  0  0  0  0
    1.2263   -5.8268    8.2271 C   0  0  0  0  0  0  0  0  0  0  0  0
    0.8671   -5.7657    9.5517 C   0  0  0  0  0  0  0  0  0  0  0  0
    1.6178   -6.5232   10.4521 O   0  0  0  0  0  0  0  0  0  0  0  0
   -3.2419   -2.0402    5.5426 H   0  0  0  0  0  0  0  0  0  0  0  0
   -2.0992   -4.8256    5.3598 H   0  0  0  0  0  0  0  0  0  0  0  0
   -0.5911   -3.0946    6.0163 H   0  0  0  0  0  0  0  0  0  0  0  0
   -1.6649   -2.5339    7.3871 H   0  0  0  0  0  0  0  0  0  0  0  0
   -1.7521   -3.6379    9.3939 H   0  0  0  0  0  0  0  0  0  0  0  0
    0.7641   -5.1291    6.2902 H   0  0  0  0  0  0  0  0  0  0  0  0
   -0.4072   -5.0010   11.0355 H   0  0  0  0  0  0  0  0  0  0  0  0
    2.0532   -6.4452    7.9095 H   0  0  0  0  0  0  0  0  0  0  0  0
    2.1024   -6.0864   11.2444 H   0  0  0  0  0  0  0  0  0  0  0  0
   -3.2679   -5.9317    7.6319 N   0  0  0  0  0  0  0  0  0  0  0  0
   -4.3430   -6.5514    8.3405 C   0  0  2  0  0  0  0  0  0  0  0  0
   -3.9691   -7.0805    9.6535 C   0  0  0  0  0  0  0  0  0  0  0  0
   -4.9020   -7.6218   10.3455 O   0  0  0  0  0  0  0  0  0  0  0  0
   -4.7509   -7.7574    7.4502 C   0  0  0  0  0  0  0  0  0  0  0  0
   -2.2970   -6.3212    7.6426 H   0  0  0  0  0  0  0  0  0  0  0  0
   -5.2075   -5.8713    8.4145 H   0  0  0  0  0  0  0  0  0  0  0  0
   -5.3895   -7.4030    6.6439 H   0  0  0  0  0  0  0  0  0  0  0  0
   -5.2241   -8.4884    8.1288 H   0  0  0  0  0  0  0  0  0  0  0  0
   -3.8000   -8.1601    7.0385 H   0  0  0  0  0  0  0  0  0  0  0  0
   -2.6739   -7.0494   10.2242 N   0  0  0  0  0  0  0  0  0  0  0  0
   -1.8830   -7.2980    9.5870 H   0  0  0  0  0  0  0  0  0  0  0  0
   -2.5958   -6.7882   11.2164 H   0  0  0  0  0  0  0  0  0  0  0  0
   -1.0824    2.4879   -0.1440 H   0  0  0  0  0  0  0  0  0  0  0  0
   -3.0931    0.4455   -1.1156 H   0  0  0  0  0  0  0  0  0  0  0  0
   -3.7238    2.1771   -2.5130 H   0  0  0  0  0  0  0  0  0  0  0  0
   -4.6254    3.5905   -1.0231 H   0  0  0  0  0  0  0  0  0  0  0  0
   -4.2268    3.3498    1.3624 H   0  0  0  0  0  0  0  0  0  0  0  0
   -2.0959    2.5760    1.8188 H   0  0  0  0  0  0  0  0  0  0  0  0
   -1.7981    4.6430   -0.6576 H   0  0  0  0  0  0  0  0  0  0  0  0
   -2.6966    5.4275   -2.3810 H   0  0  0  0  0  0  0  0  0  0  0  0
    1.1211    4.5651   -0.2811 H   0  0  0  0  0  0  0  0  0  0  0  0
    1.2852    3.0496    2.0508 H   0  0  0  0  0  0  0  0  0  0  0  0
    5.1554    2.6278    0.0591 H   0  0  0  0  0  0  0  0  0  0  0  0
    3.0298    1.0838    0.8581 H   0  0  0  0  0  0  0  0  0  0  0  0
    2.8141   -0.5917   -6.9299 H   0  0  0  0  0  0  0  0  0  0  0  0
    0.4632    0.8669   -7.0812 H   0  0  0  0  0  0  0  0  0  0  0  0
  1  2  1  0
  1 11  1  1
  1 12  1  0
  1 13  1  0
  2  3  1  0
  2  7  1  0
  3  4  1  0
  3 10  1  0
  4  5  1  0
  4 14  1  0
  5  6  1  0
  5  9  1  0
  6  7  1  0
  6 15  1  0
  7  8  1  0
  8 16  1  1
  8 17  1  0
  8171  1  0
  9 19  1  0
  9 21  1  0
 10 18  1  6
 10 20  1  0
 10118  1  0
 23 38  1  0
 38 39  1  0
 38 46  1  0
 39 40  1  0
 39 44  1  0
 39 47  1  6
 40 41  1  0
 40 48  1  1
 40 49  1  0
 41 42  1  0
 41 50  1  6
 41 51  1  0
 42 43  1  0
 42 52  1  6
 42 53  1  0
 43 54  1  6
 43 55  1  0
 44 45  1  0
 44 57  1  0
 57 58  1  0
 57 65  1  0
 58 59  1  0
 58 61  1  0
 58 66  1  6
 59 60  1  0
 59 76  1  0
 61 62  1  0
 61 67  1  6
 61 68  1  0
 62 63  1  0
 62 69  1  1
 62 70  1  0
 63 64  1  0
 63 71  1  1
 63 72  1  0
 64 73  1  6
 64 74  1  0
 64 75  1  0
 78 97  1  0
 97 98  1  0
 97104  1  0
 98 99  1  0
 98101  1  0
 98105  1  1
 99100  1  0
 99113  1  0
101102  1  0
101106  1  6
101107  1  0
102103  1  0
102108  1  6
102109  1  0
103110  1  1
103111  1  0
199207  1  0
207208  1  0
207209  1  0
 22 21  1  0
 23 22  1  0
 24 23  2  0
 25 22  1  0
 26 25  1  0
 27 26  1  0
 28 26  2  0
 29 27  2  0
 30 28  1  0
 30 29  1  0
 31 21  1  0
 22 32  1  6
 33 25  1  0
 34 25  1  0
 35 28  1  0
 36 29  1  0
 37 30  1  0
 56 43  1  0
 77 76  1  0
 78 77  1  0
 79 78  2  0
 80 77  1  0
 81 80  1  0
 82 81  2  0
 83 81  1  0
 84 82  1  0
 85 83  2  0
 86 85  1  0
 86 84  2  0
 87 86  1  0
 88 76  1  0
 77 89  1  6
 90 80  1  0
 91 80  1  0
 92 82  1  0
 93 83  1  0
 94 84  1  0
 95 85  1  0
 96 87  1  0
112103  1  0
114113  1  0
115114  1  0
116115  2  0
117114  1  0
118117  1  0
119113  1  0
114120  1  1
121117  1  0
122117  1  0
123115  1  0
124123  1  0
125124  1  0
126125  2  0
127124  1  0
128127  1  0
129127  1  0
130128  1  0
131123  1  0
124132  1  6
127133  1  1
134128  1  0
135128  1  0
136129  1  0
137129  1  0
138129  1  0
139130  1  0
140130  1  0
141130  1  0
142125  1  0
143142  1  0
144143  1  0
145144  2  0
146143  1  0
147146  1  0
148147  1  0
149148  1  0
150149  1  0
151150  1  0
152150  2  0
153142  1  0
143154  1  6
155146  1  0
156146  1  0
157147  1  0
158147  1  0
159148  1  0
160148  1  0
161149  1  0
162151  1  0
163151  1  0
164152  1  0
165152  1  0
166144  1  0
167166  1  0
168167  1  0
169168  2  0
170167  1  0
171170  1  0
172166  1  0
167173  1  6
174170  1  0
175170  1  0
176168  1  0
177176  1  0
178177  1  0
179178  2  0
180177  1  0
181180  1  0
182181  2  0
183181  1  0
184182  1  0
185183  2  0
186185  1  0
186184  2  0
187186  1  0
188176  1  0
177189  1  6
190180  1  0
191180  1  0
192182  1  0
193183  1  0
194184  1  0
195185  1  0
196187  1  0
197178  1  0
198197  1  0
199198  1  0
200199  2  0
201198  1  0
202197  1  0
198203  1  1
204201  1  0
205201  1  0
206201  1  0
  2210  1  6
  3211  1  1
  4212  1  0
  5213  1  0
  6214  1  0
  7215  1  0
  9216  1  0
 19217  1  0
 44218  1  0
 45219  1  0
 59220  1  0
 60221  1  0
 99222  1  0
100223  1  0
M  CHG  3  43   1 103   1 152   1
M  END
$$$$
BP70
     RDKit          3D

223228  0  0  0  0  0  0  0  0999 V2000
   -5.0752   -2.5249    1.2795 C   0  0  2  0  0  0  0  0  0  0  0  0
   -3.9471   -1.4837    1.0754 C   0  0  1  0  0  0  0  0  0  0  0  0
   -3.0258   -2.0792    0.0281 C   0  0  1  0  0  0  0  0  0  0  0  0
   -2.3150   -1.1138   -0.8496 C   0  0  0  0  0  0  0  0  0  0  0  0
   -3.2055   -0.0024   -1.3106 C   0  0  0  0  0  0  0  0  0  0  0  0
   -3.6491    0.7266   -0.0507 C   0  0  0  0  0  0  0  0  0  0  0  0
   -4.6033   -0.2394    0.6503 C   0  0  0  0  0  0  0  0  0  0  0  0
   -5.4396    0.4276    1.6490 C   0  0  2  0  0  0  0  0  0  0  0  0
   -2.4620    0.8873   -2.2606 C   0  0  0  0  0  0  0  0  0  0  0  0
   -1.9680   -2.8674    0.8309 C   0  0  1  0  0  0  0  0  0  0  0  0
   -5.2541   -3.1000    0.3633 H   0  0  0  0  0  0  0  0  0  0  0  0
   -6.0226   -2.0189    1.5515 H   0  0  0  0  0  0  0  0  0  0  0  0
   -4.8165   -3.2189    2.0902 H   0  0  0  0  0  0  0  0  0  0  0  0
   -1.4769   -0.6628   -0.2773 H   0  0  0  0  0  0  0  0  0  0  0  0
   -4.2309    1.6338   -0.2461 H   0  0  0  0  0  0  0  0  0  0  0  0
   -6.5593    0.2365    1.3808 H   0  0  0  0  0  0  0  0  0  0  0  0
   -5.4374    1.5855    1.4522 H   0  0  0  0  0  0  0  0  0  0  0  0
   -1.3177   -2.1068    1.2834 H   0  0  0  0  0  0  0  0  0  0  0  0
   -2.2961    0.2232   -3.4862 O   0  0  0  0  0  0  0  0  0  0  0  0
   -2.5602   -3.4688    1.5493 H   0  0  0  0  0  0  0  0  0  0  0  0
   -2.9470    2.2008   -2.4151 N   0  0  0  0  0  0  0  0  0  0  0  0
   -2.7896    2.8895   -3.6434 C   0  0  2  0  0  0  0  0  0  0  0  0
   -1.4871    3.2418   -4.1609 C   0  0  0  0  0  0  0  0  0  0  0  0
   -1.4364    3.8976   -5.2515 O   0  0  0  0  0  0  0  0  0  0  0  0
   -3.7904    4.0583   -3.6499 C   0  0  0  0  0  0  0  0  0  0  0  0
   -3.7401    4.8407   -4.8872 C   0  0  0  0  0  0  0  0  0  0  0  0
   -3.0471    5.9230   -5.2635 N   0  0  0  0  0  0  0  0  0  0  0  0
   -4.5182    4.5158   -6.0075 C   0  0  0  0  0  0  0  0  0  0  0  0
   -3.3701    6.2539   -6.5360 C   0  0  0  0  0  0  0  0  0  0  0  0
   -4.2832    5.3806   -6.9984 N   0  0  0  0  0  0  0  0  0  0  0  0
   -3.9283    2.3482   -2.0719 H   0  0  0  0  0  0  0  0  0  0  0  0
   -3.2717    2.1651   -4.4209 H   0  0  0  0  0  0  0  0  0  0  0  0
   -4.8043    3.6545   -3.4454 H   0  0  0  0  0  0  0  0  0  0  0  0
   -3.5395    4.7108   -2.7617 H   0  0  0  0  0  0  0  0  0  0  0  0
   -5.2207    3.6757   -6.0778 H   0  0  0  0  0  0  0  0  0  0  0  0
   -2.9969    7.0676   -7.1436 H   0  0  0  0  0  0  0  0  0  0  0  0
   -4.7499    5.3428   -7.9412 H   0  0  0  0  0  0  0  0  0  0  0  0
   -0.1861    2.9749   -3.6498 N   0  0  0  0  0  0  0  0  0  0  0  0
    1.0347    3.4254   -4.2649 C   0  0  1  0  0  0  0  0  0  0  0  0
    1.6193    4.5963   -3.4515 C   0  0  2  0  0  0  0  0  0  0  0  0
    0.6365    5.7406   -3.4118 C   0  0  2  0  0  0  0  0  0  0  0  0
    1.2294    6.8676   -2.6153 C   0  0  1  0  0  0  0  0  0  0  0  0
    0.2261    7.9760   -2.6037 N   0  0  2  0  0  0  0  0  0  0  0  0
    2.1521    2.4804   -4.4968 C   0  0  0  0  0  0  0  0  0  0  0  0
    3.2112    3.4406   -4.9377 O   0  0  0  0  0  0  0  0  0  0  0  0
   -0.1334    2.4441   -2.7967 H   0  0  0  0  0  0  0  0  0  0  0  0
    0.7726    3.9352   -5.2621 H   0  0  0  0  0  0  0  0  0  0  0  0
    2.4963    4.9477   -4.0263 H   0  0  0  0  0  0  0  0  0  0  0  0
    1.9477    4.2815   -2.4662 H   0  0  0  0  0  0  0  0  0  0  0  0
   -0.2954    5.4268   -2.9244 H   0  0  0  0  0  0  0  0  0  0  0  0
    0.4024    6.0567   -4.4430 H   0  0  0  0  0  0  0  0  0  0  0  0
    1.4130    6.5945   -1.5567 H   0  0  0  0  0  0  0  0  0  0  0  0
    2.1435    7.2815   -3.0869 H   0  0  0  0  0  0  0  0  0  0  0  0
    0.4180    8.6009   -1.7720 H   0  0  0  0  0  0  0  0  0  0  0  0
   -0.7451    7.5495   -2.5751 H   0  0  0  0  0  0  0  0  0  0  0  0
    0.3575    8.5304   -3.5138 H   0  0  0  0  0  0  0  0  0  0  0  0
    2.2274    1.5433   -5.4896 N   0  0  0  0  0  0  0  0  0  0  0  0
    1.5085    0.4385   -5.8834 C   0  0  2  0  0  0  0  0  0  0  0  0
    2.2155   -0.2630   -7.0502 C   0  0  0  0  0  0  0  0  0  0  0  0
    2.3800    0.6216   -8.0916 O   0  0  0  0  0  0  0  0  0  0  0  0
    0.1238    0.7566   -6.4006 C   0  0  2  0  0  0  0  0  0  0  0  0
   -0.6679   -0.4647   -6.8512 C   0  0  1  0  0  0  0  0  0  0  0  0
   -2.0452    0.1167   -7.2692 C   0  0  1  0  0  0  0  0  0  0  0  0
   -1.8679    1.1151   -8.3817 C   0  0  2  0  0  0  0  0  0  0  0  0
    3.2036    1.5232   -5.9827 H   0  0  0  0  0  0  0  0  0  0  0  0
    1.4071   -0.3004   -5.0266 H   0  0  0  0  0  0  0  0  0  0  0  0
    0.1545    1.4664   -7.2498 H   0  0  0  0  0  0  0  0  0  0  0  0
   -0.5129    1.2093   -5.6331 H   0  0  0  0  0  0  0  0  0  0  0  0
   -0.2621   -0.8791   -7.7727 H   0  0  0  0  0  0  0  0  0  0  0  0
   -0.8346   -1.1814   -6.0544 H   0  0  0  0  0  0  0  0  0  0  0  0
   -2.7225   -0.6782   -7.6042 H   0  0  0  0  0  0  0  0  0  0  0  0
   -2.4966    0.6209   -6.3937 H   0  0  0  0  0  0  0  0  0  0  0  0
   -2.6827    1.0641   -9.1421 H   0  0  0  0  0  0  0  0  0  0  0  0
   -0.9343    0.8705   -8.9399 H   0  0  0  0  0  0  0  0  0  0  0  0
   -1.8429    2.1561   -8.0107 H   0  0  0  0  0  0  0  0  0  0  0  0
    3.4255   -0.9508   -6.7462 N   0  0  0  0  0  0  0  0  0  0  0  0
    3.1660   -2.1175   -5.9019 C   0  0  2  0  0  0  0  0  0  0  0  0
    3.3459   -1.6981   -4.4885 C   0  0  0  0  0  0  0  0  0  0  0  0
    4.0041   -0.7063   -4.1820 O   0  0  0  0  0  0  0  0  0  0  0  0
    4.1141   -3.2488   -6.2506 C   0  0  0  0  0  0  0  0  0  0  0  0
    3.9090   -3.6060   -7.6723 C   0  0  0  0  0  0  0  0  0  0  0  0
    2.9900   -4.5585   -8.0459 C   0  0  0  0  0  0  0  0  0  0  0  0
    4.6952   -2.9361   -8.6066 C   0  0  0  0  0  0  0  0  0  0  0  0
    2.8595   -4.8448   -9.3987 C   0  0  0  0  0  0  0  0  0  0  0  0
    4.5374   -3.2497   -9.9579 C   0  0  0  0  0  0  0  0  0  0  0  0
    3.6161   -4.2086  -10.3625 C   0  0  0  0  0  0  0  0  0  0  0  0
    3.4657   -4.5149  -11.7216 O   0  0  0  0  0  0  0  0  0  0  0  0
    4.2063   -0.3830   -6.4022 H   0  0  0  0  0  0  0  0  0  0  0  0
    2.1394   -2.4877   -6.0388 H   0  0  0  0  0  0  0  0  0  0  0  0
    3.8566   -4.1363   -5.6348 H   0  0  0  0  0  0  0  0  0  0  0  0
    5.1380   -2.9078   -6.1026 H   0  0  0  0  0  0  0  0  0  0  0  0
    2.3766   -5.0791   -7.3187 H   0  0  0  0  0  0  0  0  0  0  0  0
    5.4129   -2.1899   -8.2890 H   0  0  0  0  0  0  0  0  0  0  0  0
    2.1495   -5.5837   -9.7450 H   0  0  0  0  0  0  0  0  0  0  0  0
    5.1638   -2.7127  -10.6784 H   0  0  0  0  0  0  0  0  0  0  0  0
    2.7710   -4.1391  -12.3251 H   0  0  0  0  0  0  0  0  0  0  0  0
    2.7460   -2.4318   -3.4347 N   0  0  0  0  0  0  0  0  0  0  0  0
    2.9331   -2.1926   -2.0146 C   0  0  2  0  0  0  0  0  0  0  0  0
    1.9736   -3.1008   -1.2732 C   0  0  0  0  0  0  0  0  0  0  0  0
    0.7126   -2.6732   -1.6728 O   0  0  0  0  0  0  0  0  0  0  0  0
    2.2296   -0.7850   -1.8313 C   0  0  2  0  0  0  0  0  0  0  0  0
    2.3222   -0.3152   -0.4238 C   0  0  1  0  0  0  0  0  0  0  0  0
    1.6130    1.0014   -0.4027 N   0  0  2  0  0  0  0  0  0  0  0  0
    2.1306   -3.1949   -3.7377 H   0  0  0  0  0  0  0  0  0  0  0  0
    3.9378   -2.0816   -1.6654 H   0  0  0  0  0  0  0  0  0  0  0  0
    1.1892   -0.8652   -2.1484 H   0  0  0  0  0  0  0  0  0  0  0  0
    2.7472   -0.0591   -2.4678 H   0  0  0  0  0  0  0  0  0  0  0  0
    1.8252   -0.9114    0.3349 H   0  0  0  0  0  0  0  0  0  0  0  0
    3.3789   -0.0614   -0.1386 H   0  0  0  0  0  0  0  0  0  0  0  0
    0.9889    1.0360    0.4637 H   0  0  0  0  0  0  0  0  0  0  0  0
    0.9803    1.0568   -1.2696 H   0  0  0  0  0  0  0  0  0  0  0  0
    2.3157    1.7865   -0.4231 H   0  0  0  0  0  0  0  0  0  0  0  0
    2.2631   -3.1976    0.0731 N   0  0  0  0  0  0  0  0  0  0  0  0
    1.3989   -3.6519    1.0405 C   0  0  2  0  0  0  0  0  0  0  0  0
    1.9788   -3.8720    2.3967 C   0  0  0  0  0  0  0  0  0  0  0  0
    3.1608   -4.0131    2.6769 O   0  0  0  0  0  0  0  0  0  0  0  0
    0.3541   -4.6987    0.7245 C   0  0  0  0  0  0  0  0  0  0  0  0
   -1.0557   -4.0288   -0.2197 S   0  0  0  0  0  0  0  0  0  0  0  0
    3.2717   -3.1559    0.2827 H   0  0  0  0  0  0  0  0  0  0  0  0
    0.6955   -2.7256    1.2620 H   0  0  0  0  0  0  0  0  0  0  0  0
    0.7560   -5.5589    0.1860 H   0  0  0  0  0  0  0  0  0  0  0  0
   -0.0505   -5.0736    1.6804 H   0  0  0  0  0  0  0  0  0  0  0  0
    1.0432   -3.9051    3.4531 N   0  0  0  0  0  0  0  0  0  0  0  0
    1.2585   -4.1739    4.8621 C   0  0  2  0  0  0  0  0  0  0  0  0
   -0.0593   -4.2214    5.5539 C   0  0  0  0  0  0  0  0  0  0  0  0
   -0.3191   -4.9133    6.5188 O   0  0  0  0  0  0  0  0  0  0  0  0
    2.2260   -3.1631    5.4334 C   0  0  2  0  0  0  0  0  0  0  0  0
    2.5634   -3.2817    6.8733 C   0  0  0  0  0  0  0  0  0  0  0  0
    1.7588   -1.7399    5.1964 C   0  0  0  0  0  0  0  0  0  0  0  0
    1.4747   -3.1184    7.8666 C   0  0  0  0  0  0  0  0  0  0  0  0
    0.0650   -3.7280    3.1613 H   0  0  0  0  0  0  0  0  0  0  0  0
    1.7748   -5.1264    4.9500 H   0  0  0  0  0  0  0  0  0  0  0  0
    3.1751   -3.2856    4.8662 H   0  0  0  0  0  0  0  0  0  0  0  0
    3.3689   -2.5264    7.0967 H   0  0  0  0  0  0  0  0  0  0  0  0
    3.0713   -4.2637    7.1054 H   0  0  0  0  0  0  0  0  0  0  0  0
    2.6040   -1.0730    5.4772 H   0  0  0  0  0  0  0  0  0  0  0  0
    0.9195   -1.4791    5.8889 H   0  0  0  0  0  0  0  0  0  0  0  0
    1.4736   -1.5192    4.1726 H   0  0  0  0  0  0  0  0  0  0  0  0
    1.2254   -4.0071    8.4749 H   0  0  0  0  0  0  0  0  0  0  0  0
    0.5547   -2.6290    7.5236 H   0  0  0  0  0  0  0  0  0  0  0  0
    1.8663   -2.3898    8.6553 H   0  0  0  0  0  0  0  0  0  0  0  0
   -1.0821   -3.3847    5.0645 N   0  0  0  0  0  0  0  0  0  0  0  0
   -2.4576   -3.2344    5.2243 C   0  0  2  0  0  0  0  0  0  0  0  0
   -2.9787   -1.8925    4.7694 C   0  0  0  0  0  0  0  0  0  0  0  0
   -4.1846   -1.8202    4.5760 O   0  0  0  0  0  0  0  0  0  0  0  0
   -3.2553   -3.7583    6.3429 C   0  0  0  0  0  0  0  0  0  0  0  0
   -3.3311   -5.2338    6.4155 C   0  0  0  0  0  0  0  0  0  0  0  0
   -4.1703   -5.7022    7.6054 C   0  0  0  0  0  0  0  0  0  0  0  0
   -5.5258   -5.2461    7.5167 N   0  0  0  0  0  0  0  0  0  0  0  0
   -6.4837   -5.7133    6.5868 C   0  0  0  0  0  0  0  0  0  0  0  0
   -7.7888   -5.1143    6.6650 N   0  0  0  0  0  0  0  0  0  0  0  0
   -6.2680   -6.6145    5.7016 N   0  0  0  0  0  0  0  0  0  0  0  0
   -0.6487   -2.6276    4.4033 H   0  0  0  0  0  0  0  0  0  0  0  0
   -2.8758   -3.9666    4.3679 H   0  0  0  0  0  0  0  0  0  0  0  0
   -4.3161   -3.4000    6.1537 H   0  0  0  0  0  0  0  0  0  0  0  0
   -3.0227   -3.2787    7.3303 H   0  0  0  0  0  0  0  0  0  0  0  0
   -2.4871   -5.8679    6.3833 H   0  0  0  0  0  0  0  0  0  0  0  0
   -3.9307   -5.5161    5.4701 H   0  0  0  0  0  0  0  0  0  0  0  0
   -3.6638   -5.4015    8.5107 H   0  0  0  0  0  0  0  0  0  0  0  0
   -4.2309   -6.8325    7.5860 H   0  0  0  0  0  0  0  0  0  0  0  0
   -5.8168   -4.5048    8.2097 H   0  0  0  0  0  0  0  0  0  0  0  0
   -8.4886   -5.3931    7.3929 H   0  0  0  0  0  0  0  0  0  0  0  0
   -8.0515   -4.3803    5.9742 H   0  0  0  0  0  0  0  0  0  0  0  0
   -7.0678   -6.8627    5.0754 H   0  0  0  0  0  0  0  0  0  0  0  0
   -5.4010   -7.1484    5.5446 H   0  0  0  0  0  0  0  0  0  0  0  0
   -2.1967   -0.7494    4.5718 N   0  0  0  0  0  0  0  0  0  0  0  0
   -2.5005    0.5406    4.0448 C   0  0  2  0  0  0  0  0  0  0  0  0
   -1.6068    1.6310    4.5272 C   0  0  0  0  0  0  0  0  0  0  0  0
   -1.8701    2.7884    4.1011 O   0  0  0  0  0  0  0  0  0  0  0  0
   -3.9205    1.0276    4.2487 C   0  0  0  0  0  0  0  0  0  0  0  0
   -5.2216    0.2564    3.3765 S   0  0  0  0  0  0  0  0  0  0  0  0
   -1.1955   -0.8839    4.8870 H   0  0  0  0  0  0  0  0  0  0  0  0
   -2.4568    0.4605    2.9144 H   0  0  0  0  0  0  0  0  0  0  0  0
   -4.1276    0.9206    5.3597 H   0  0  0  0  0  0  0  0  0  0  0  0
   -3.8822    2.1292    4.0092 H   0  0  0  0  0  0  0  0  0  0  0  0
   -0.5291    1.4697    5.3993 N   0  0  0  0  0  0  0  0  0  0  0  0
    0.3299    2.5673    5.8941 C   0  0  2  0  0  0  0  0  0  0  0  0
    1.6037    2.6283    5.1490 C   0  0  0  0  0  0  0  0  0  0  0  0
    2.4917    3.5023    5.4541 O   0  0  0  0  0  0  0  0  0  0  0  0
    0.5616    2.4138    7.3539 C   0  0  0  0  0  0  0  0  0  0  0  0
    1.4186    3.4653    7.9125 C   0  0  0  0  0  0  0  0  0  0  0  0
    2.7842    3.3590    8.0949 C   0  0  0  0  0  0  0  0  0  0  0  0
    0.8268    4.6588    8.2893 C   0  0  0  0  0  0  0  0  0  0  0  0
    3.5645    4.3624    8.6226 C   0  0  0  0  0  0  0  0  0  0  0  0
    1.6140    5.6774    8.8246 C   0  0  0  0  0  0  0  0  0  0  0  0
    2.9741    5.5485    8.9968 C   0  0  0  0  0  0  0  0  0  0  0  0
    3.7561    6.5723    9.5322 O   0  0  0  0  0  0  0  0  0  0  0  0
   -0.2646    0.5351    5.7654 H   0  0  0  0  0  0  0  0  0  0  0  0
   -0.2378    3.4976    5.6349 H   0  0  0  0  0  0  0  0  0  0  0  0
   -0.4073    2.3345    7.9084 H   0  0  0  0  0  0  0  0  0  0  0  0
    1.1094    1.4431    7.5536 H   0  0  0  0  0  0  0  0  0  0  0  0
    3.2747    2.4344    7.8159 H   0  0  0  0  0  0  0  0  0  0  0  0
   -0.2508    4.7742    8.1569 H   0  0  0  0  0  0  0  0  0  0  0  0
    4.6313    4.1802    8.7255 H   0  0  0  0  0  0  0  0  0  0  0  0
    1.1389    6.6071    9.1187 H   0  0  0  0  0  0  0  0  0  0  0  0
    3.3715    7.5035    9.6577 H   0  0  0  0  0  0  0  0  0  0  0  0
    1.9548    1.7720    4.0771 N   0  0  0  0  0  0  0  0  0  0  0  0
    3.2415    1.9532    3.4579 C   0  0  2  0  0  0  0  0  0  0  0  0
    2.9857    2.7571    2.2040 C   0  0  0  0  0  0  0  0  0  0  0  0
    3.9639    2.9651    1.4505 O   0  0  0  0  0  0  0  0  0  0  0  0
    3.8731    0.6619    3.0451 C   0  0  0  0  0  0  0  0  0  0  0  0
    1.2819    1.0388    3.7682 H   0  0  0  0  0  0  0  0  0  0  0  0
    3.9260    2.5548    4.1047 H   0  0  0  0  0  0  0  0  0  0  0  0
    3.1431   -0.1353    2.8191 H   0  0  0  0  0  0  0  0  0  0  0  0
    4.5357    0.2475    3.8468 H   0  0  0  0  0  0  0  0  0  0  0  0
    4.4568    0.8594    2.1112 H   0  0  0  0  0  0  0  0  0  0  0  0
    1.7085    3.2633    1.8765 N   0  0  0  0  0  0  0  0  0  0  0  0
    1.6213    4.1342    1.2900 H   0  0  0  0  0  0  0  0  0  0  0  0
    0.8819    2.7364    2.2411 H   0  0  0  0  0  0  0  0  0  0  0  0
   -3.3778   -1.3775    2.0041 H   0  0  0  0  0  0  0  0  0  0  0  0
   -3.5718   -2.8309   -0.5545 H   0  0  0  0  0  0  0  0  0  0  0  0
   -1.9466   -1.6822   -1.7340 H   0  0  0  0  0  0  0  0  0  0  0  0
   -4.0922   -0.3815   -1.8751 H   0  0  0  0  0  0  0  0  0  0  0  0
   -2.7709    0.9744    0.5397 H   0  0  0  0  0  0  0  0  0  0  0  0
   -5.3087   -0.5405   -0.2450 H   0  0  0  0  0  0  0  0  0  0  0  0
   -1.4095    0.9227   -1.8297 H   0  0  0  0  0  0  0  0  0  0  0  0
   -2.6288   -0.6993   -3.4268 H   0  0  0  0  0  0  0  0  0  0  0  0
    2.5794    2.1380   -3.4981 H   0  0  0  0  0  0  0  0  0  0  0  0
    2.9535    3.6863   -5.8605 H   0  0  0  0  0  0  0  0  0  0  0  0
    1.5378   -1.0761   -7.4430 H   0  0  0  0  0  0  0  0  0  0  0  0
    3.2802    1.0276   -8.1406 H   0  0  0  0  0  0  0  0  0  0  0  0
    2.1811   -4.1266   -1.7368 H   0  0  0  0  0  0  0  0  0  0  0  0
    0.5133   -3.0727   -2.5474 H   0  0  0  0  0  0  0  0  0  0  0  0
  1  2  1  0
  1 11  1  6
  1 12  1  0
  1 13  1  0
  2  3  1  0
  2  7  1  0
  3  4  1  0
  3 10  1  0
  4  5  1  0
  4 14  1  0
  5  6  1  0
  5  9  1  0
  6  7  1  0
  6 15  1  0
  7  8  1  0
  8 16  1  1
  8 17  1  0
  8171  1  0
  9 19  1  0
  9 21  1  0
 10 18  1  1
 10 20  1  0
 10118  1  0
 23 38  1  0
 38 39  1  0
 38 46  1  0
 39 40  1  0
 39 44  1  0
 39 47  1  6
 40 41  1  0
 40 48  1  6
 40 49  1  0
 41 42  1  0
 41 50  1  1
 41 51  1  0
 42 43  1  0
 42 52  1  1
 42 53  1  0
 43 54  1  1
 43 55  1  0
 44 45  1  0
 44 57  1  0
 57 58  1  0
 57 65  1  0
 58 59  1  0
 58 61  1  0
 58 66  1  1
 59 60  1  0
 59 76  1  0
 61 62  1  0
 61 67  1  6
 61 68  1  0
 62 63  1  0
 62 69  1  6
 62 70  1  0
 63 64  1  0
 63 71  1  6
 63 72  1  0
 64 73  1  6
 64 74  1  0
 64 75  1  0
 78 97  1  0
 97 98  1  0
 97104  1  0
 98 99  1  0
 98101  1  0
 98105  1  1
 99100  1  0
 99113  1  0
101102  1  0
101106  1  6
101107  1  0
102103  1  0
102108  1  1
102109  1  0
103110  1  1
103111  1  0
199207  1  0
207208  1  0
207209  1  0
 22 21  1  0
 23 22  1  0
 24 23  2  0
 25 22  1  0
 26 25  1  0
 27 26  1  0
 28 26  2  0
 29 27  2  0
 30 28  1  0
 30 29  1  0
 31 21  1  0
 22 32  1  6
 33 25  1  0
 34 25  1  0
 35 28  1  0
 36 29  1  0
 37 30  1  0
 56 43  1  0
 77 76  1  0
 78 77  1  0
 79 78  2  0
 80 77  1  0
 81 80  1  0
 82 81  2  0
 83 81  1  0
 84 82  1  0
 85 83  2  0
 86 85  1  0
 86 84  2  0
 87 86  1  0
 88 76  1  0
 77 89  1  1
 90 80  1  0
 91 80  1  0
 92 82  1  0
 93 83  1  0
 94 84  1  0
 95 85  1  0
 96 87  1  0
112103  1  0
114113  1  0
115114  1  0
116115  2  0
117114  1  0
118117  1  0
119113  1  0
114120  1  1
121117  1  0
122117  1  0
123115  1  0
124123  1  0
125124  1  0
126125  2  0
127124  1  0
128127  1  0
129127  1  0
130128  1  0
131123  1  0
124132  1  6
127133  1  6
134128  1  0
135128  1  0
136129  1  0
137129  1  0
138129  1  0
139130  1  0
140130  1  0
141130  1  0
142125  1  0
143142  1  0
144143  1  0
145144  2  0
146143  1  0
147146  1  0
148147  1  0
149148  1  0
150149  1  0
151150  1  0
152150  2  0
153142  1  0
143154  1  6
155146  1  0
156146  1  0
157147  1  0
158147  1  0
159148  1  0
160148  1  0
161149  1  0
162151  1  0
163151  1  0
164152  1  0
165152  1  0
166144  1  0
167166  1  0
168167  1  0
169168  2  0
170167  1  0
171170  1  0
172166  1  0
167173  1  6
174170  1  0
175170  1  0
176168  1  0
177176  1  0
178177  1  0
179178  2  0
180177  1  0
181180  1  0
182181  2  0
183181  1  0
184182  1  0
185183  2  0
186185  1  0
186184  2  0
187186  1  0
188176  1  0
177189  1  1
190180  1  0
191180  1  0
192182  1  0
193183  1  0
194184  1  0
195185  1  0
196187  1  0
197178  1  0
198197  1  0
199198  1  0
200199  2  0
201198  1  0
202197  1  0
198203  1  1
204201  1  0
205201  1  0
206201  1  0
  2210  1  1
  3211  1  6
  4212  1  0
  5213  1  0
  6214  1  0
  7215  1  0
  9216  1  0
 19217  1  0
 44218  1  0
 45219  1  0
 59220  1  0
 60221  1  0
 99222  1  0
100223  1  0
M  CHG  3  43   1 103   1 152   1
M  END
$$$$
BP70
     RDKit          3D

223228  0  0  0  0  0  0  0  0999 V2000
    1.0056    3.2119   -4.0029 C   0  0  2  0  0  0  0  0  0  0  0  0
    0.0238    2.8079   -2.8973 C   0  0  1  0  0  0  0  0  0  0  0  0
    0.8596    2.1996   -1.8104 C   0  0  1  0  0  0  0  0  0  0  0  0
    0.1824    2.4345   -0.4568 C   0  0  0  0  0  0  0  0  0  0  0  0
    0.2488    3.9228   -0.2744 C   0  0  0  0  0  0  0  0  0  0  0  0
   -0.7854    4.4891   -1.1803 C   0  0  0  0  0  0  0  0  0  0  0  0
   -0.8723    3.9076   -2.5595 C   0  0  0  0  0  0  0  0  0  0  0  0
   -2.3009    3.6127   -2.9381 C   0  0  2  0  0  0  0  0  0  0  0  0
   -0.0624    4.3134    1.1576 C   0  0  0  0  0  0  0  0  0  0  0  0
    1.0000    0.7273   -1.9223 C   0  0  1  0  0  0  0  0  0  0  0  0
    1.2420    2.3967   -4.6903 H   0  0  0  0  0  0  0  0  0  0  0  0
    1.8648    3.7766   -3.6194 H   0  0  0  0  0  0  0  0  0  0  0  0
    0.4094    3.9449   -4.6254 H   0  0  0  0  0  0  0  0  0  0  0  0
   -0.8760    2.0927   -0.5912 H   0  0  0  0  0  0  0  0  0  0  0  0
   -0.7012    5.5951   -1.1494 H   0  0  0  0  0  0  0  0  0  0  0  0
   -2.7974    4.5100   -3.4131 H   0  0  0  0  0  0  0  0  0  0  0  0
   -2.9347    3.4116   -2.0473 H   0  0  0  0  0  0  0  0  0  0  0  0
    1.7732    0.4056   -1.2001 H   0  0  0  0  0  0  0  0  0  0  0  0
   -1.3416    3.8156    1.4323 O   0  0  0  0  0  0  0  0  0  0  0  0
    0.0530    0.2180   -1.5793 H   0  0  0  0  0  0  0  0  0  0  0  0
    0.8327    3.7728    2.1146 N   0  0  0  0  0  0  0  0  0  0  0  0
    2.1612    4.2174    2.1537 C   0  0  2  0  0  0  0  0  0  0  0  0
    2.9522    3.4969    3.1702 C   0  0  0  0  0  0  0  0  0  0  0  0
    4.0802    3.9422    3.4550 O   0  0  0  0  0  0  0  0  0  0  0  0
    2.3813    5.6822    2.3595 C   0  0  0  0  0  0  0  0  0  0  0  0
    1.8613    6.2656    3.5863 C   0  0  0  0  0  0  0  0  0  0  0  0
    1.9921    7.5938    3.8864 N   0  0  0  0  0  0  0  0  0  0  0  0
    1.1812    5.7288    4.6569 C   0  0  0  0  0  0  0  0  0  0  0  0
    1.4208    7.8102    5.0608 C   0  0  0  0  0  0  0  0  0  0  0  0
    0.9049    6.6775    5.5715 N   0  0  0  0  0  0  0  0  0  0  0  0
    0.4487    3.3049    2.9269 H   0  0  0  0  0  0  0  0  0  0  0  0
    2.7216    3.9898    1.1767 H   0  0  0  0  0  0  0  0  0  0  0  0
    1.9243    6.2530    1.4944 H   0  0  0  0  0  0  0  0  0  0  0  0
    3.4589    5.9375    2.2927 H   0  0  0  0  0  0  0  0  0  0  0  0
    0.8983    4.6959    4.7761 H   0  0  0  0  0  0  0  0  0  0  0  0
    1.3894    8.8069    5.5303 H   0  0  0  0  0  0  0  0  0  0  0  0
    0.3960    6.5411    6.4814 H   0  0  0  0  0  0  0  0  0  0  0  0
    2.5669    2.3298    3.8665 N   0  0  0  0  0  0  0  0  0  0  0  0
    3.4723    1.7581    4.9468 C   0  0  1  0  0  0  0  0  0  0  0  0
    2.6417    1.4445    6.0991 C   0  0  2  0  0  0  0  0  0  0  0  0
    3.0869    0.8787    7.3775 C   0  0  2  0  0  0  0  0  0  0  0  0
    3.6501   -0.4682    7.5065 C   0  0  1  0  0  0  0  0  0  0  0  0
    2.6754   -1.4920    7.0149 N   0  0  2  0  0  0  0  0  0  0  0  0
    4.3355    0.7828    4.2561 C   0  0  0  0  0  0  0  0  0  0  0  0
    5.3484    0.1907    4.9880 O   0  0  0  0  0  0  0  0  0  0  0  0
    1.6945    1.9003    3.6252 H   0  0  0  0  0  0  0  0  0  0  0  0
    4.1546    2.6354    5.2009 H   0  0  0  0  0  0  0  0  0  0  0  0
    1.6555    0.9323    5.7752 H   0  0  0  0  0  0  0  0  0  0  0  0
    2.1715    2.4671    6.4007 H   0  0  0  0  0  0  0  0  0  0  0  0
    2.2175    0.9131    8.1388 H   0  0  0  0  0  0  0  0  0  0  0  0
    3.7779    1.6540    7.8594 H   0  0  0  0  0  0  0  0  0  0  0  0
    4.6062   -0.7415    7.1204 H   0  0  0  0  0  0  0  0  0  0  0  0
    3.6552   -0.6859    8.6517 H   0  0  0  0  0  0  0  0  0  0  0  0
    2.1782   -1.0883    6.1609 H   0  0  0  0  0  0  0  0  0  0  0  0
    1.9516   -1.6722    7.7842 H   0  0  0  0  0  0  0  0  0  0  0  0
    3.2125   -2.3747    6.7742 H   0  0  0  0  0  0  0  0  0  0  0  0
    3.6416   -0.2086    3.4469 N   0  0  0  0  0  0  0  0  0  0  0  0
    4.6481   -1.1732    2.9574 C   0  0  2  0  0  0  0  0  0  0  0  0
    5.5090   -0.4536    1.9482 C   0  0  0  0  0  0  0  0  0  0  0  0
    4.6572    0.0336    0.9844 O   0  0  0  0  0  0  0  0  0  0  0  0
    3.9214   -2.2976    2.3073 C   0  0  2  0  0  0  0  0  0  0  0  0
    4.7358   -3.4244    1.7829 C   0  0  1  0  0  0  0  0  0  0  0  0
    3.7589   -4.4434    1.1715 C   0  0  1  0  0  0  0  0  0  0  0  0
    4.5289   -5.6255    0.6243 C   0  0  2  0  0  0  0  0  0  0  0  0
    2.9362   -0.7563    3.9297 H   0  0  0  0  0  0  0  0  0  0  0  0
    5.2895   -1.5054    3.8087 H   0  0  0  0  0  0  0  0  0  0  0  0
    3.3413   -1.8788    1.4482 H   0  0  0  0  0  0  0  0  0  0  0  0
    3.2282   -2.7302    3.0742 H   0  0  0  0  0  0  0  0  0  0  0  0
    5.4492   -3.2260    0.9896 H   0  0  0  0  0  0  0  0  0  0  0  0
    5.2220   -4.0107    2.6133 H   0  0  0  0  0  0  0  0  0  0  0  0
    2.9665   -4.7133    1.8865 H   0  0  0  0  0  0  0  0  0  0  0  0
    3.2718   -3.9732    0.2818 H   0  0  0  0  0  0  0  0  0  0  0  0
    5.4269   -5.2841    0.0851 H   0  0  0  0  0  0  0  0  0  0  0  0
    3.9074   -6.2335   -0.0614 H   0  0  0  0  0  0  0  0  0  0  0  0
    4.8842   -6.2428    1.4730 H   0  0  0  0  0  0  0  0  0  0  0  0
    6.5441   -1.3382    1.4331 N   0  0  0  0  0  0  0  0  0  0  0  0
    7.3617   -0.7469    0.4184 C   0  0  2  0  0  0  0  0  0  0  0  0
    6.7508   -0.5187   -0.8935 C   0  0  0  0  0  0  0  0  0  0  0  0
    7.3723    0.1961   -1.7076 O   0  0  0  0  0  0  0  0  0  0  0  0
    8.7104   -1.4377    0.3046 C   0  0  0  0  0  0  0  0  0  0  0  0
    8.5692   -2.8636   -0.0293 C   0  0  0  0  0  0  0  0  0  0  0  0
    8.4477   -3.8366    0.9545 C   0  0  0  0  0  0  0  0  0  0  0  0
    8.5587   -3.2586   -1.3493 C   0  0  0  0  0  0  0  0  0  0  0  0
    8.3174   -5.1850    0.6355 C   0  0  0  0  0  0  0  0  0  0  0  0
    8.4288   -4.6013   -1.6731 C   0  0  0  0  0  0  0  0  0  0  0  0
    8.3066   -5.5835   -0.6847 C   0  0  0  0  0  0  0  0  0  0  0  0
    8.1781   -6.9262   -1.0394 O   0  0  0  0  0  0  0  0  0  0  0  0
    7.1750   -1.5437    2.2365 H   0  0  0  0  0  0  0  0  0  0  0  0
    7.6180    0.2883    0.8132 H   0  0  0  0  0  0  0  0  0  0  0  0
    9.2738   -0.9527   -0.5103 H   0  0  0  0  0  0  0  0  0  0  0  0
    9.2447   -1.2811    1.2482 H   0  0  0  0  0  0  0  0  0  0  0  0
    8.4525   -3.5521    1.9988 H   0  0  0  0  0  0  0  0  0  0  0  0
    8.6495   -2.5706   -2.1798 H   0  0  0  0  0  0  0  0  0  0  0  0
    8.2249   -5.9133    1.4350 H   0  0  0  0  0  0  0  0  0  0  0  0
    8.4162   -4.9666   -2.6849 H   0  0  0  0  0  0  0  0  0  0  0  0
    8.8434   -7.2887   -1.7069 H   0  0  0  0  0  0  0  0  0  0  0  0
    5.5162   -1.0344   -1.3776 N   0  0  0  0  0  0  0  0  0  0  0  0
    4.8589   -0.6614   -2.5789 C   0  0  2  0  0  0  0  0  0  0  0  0
    4.3105   -1.7037   -3.4611 C   0  0  0  0  0  0  0  0  0  0  0  0
    3.7897   -1.0236   -4.6046 O   0  0  0  0  0  0  0  0  0  0  0  0
    5.3927    0.5273   -3.3478 C   0  0  2  0  0  0  0  0  0  0  0  0
    5.2883    1.8426   -2.6195 C   0  0  1  0  0  0  0  0  0  0  0  0
    5.8888    2.9232   -3.4646 N   0  0  2  0  0  0  0  0  0  0  0  0
    5.0997   -1.7728   -0.7972 H   0  0  0  0  0  0  0  0  0  0  0  0
    3.9129   -0.1101   -2.1063 H   0  0  0  0  0  0  0  0  0  0  0  0
    4.6871    0.6293   -4.2105 H   0  0  0  0  0  0  0  0  0  0  0  0
    6.3738    0.3658   -3.8122 H   0  0  0  0  0  0  0  0  0  0  0  0
    4.1632    2.1400   -2.5962 H   0  0  0  0  0  0  0  0  0  0  0  0
    5.5614    1.9093   -1.5907 H   0  0  0  0  0  0  0  0  0  0  0  0
    5.6195    2.7322   -4.4683 H   0  0  0  0  0  0  0  0  0  0  0  0
    6.9376    2.9041   -3.3140 H   0  0  0  0  0  0  0  0  0  0  0  0
    5.4722    3.8594   -3.1441 H   0  0  0  0  0  0  0  0  0  0  0  0
    3.4205   -2.6646   -2.9940 N   0  0  0  0  0  0  0  0  0  0  0  0
    2.1348   -2.4437   -2.5716 C   0  0  2  0  0  0  0  0  0  0  0  0
    1.3524   -3.6670   -2.2478 C   0  0  0  0  0  0  0  0  0  0  0  0
    1.6298   -4.8292   -2.4679 O   0  0  0  0  0  0  0  0  0  0  0  0
    1.2043   -1.6657   -3.4940 C   0  0  0  0  0  0  0  0  0  0  0  0
    1.4585    0.1082   -3.5611 S   0  0  0  0  0  0  0  0  0  0  0  0
    3.7876   -3.6475   -2.9386 H   0  0  0  0  0  0  0  0  0  0  0  0
    2.1508   -1.8234   -1.6256 H   0  0  0  0  0  0  0  0  0  0  0  0
    1.1539   -2.1343   -4.5008 H   0  0  0  0  0  0  0  0  0  0  0  0
    0.1691   -1.7954   -3.0876 H   0  0  0  0  0  0  0  0  0  0  0  0
    0.0923   -3.4242   -1.5691 N   0  0  0  0  0  0  0  0  0  0  0  0
   -0.9200   -4.4315   -1.3882 C   0  0  2  0  0  0  0  0  0  0  0  0
   -2.2801   -3.8832   -1.7135 C   0  0  0  0  0  0  0  0  0  0  0  0
   -3.2750   -4.5958   -1.9187 O   0  0  0  0  0  0  0  0  0  0  0  0
   -1.0586   -4.8479    0.0898 C   0  0  2  0  0  0  0  0  0  0  0  0
    0.2126   -5.4096    0.6375 C   0  0  0  0  0  0  0  0  0  0  0  0
   -2.1589   -5.8749    0.2176 C   0  0  0  0  0  0  0  0  0  0  0  0
   -0.0094   -5.7979    2.0839 C   0  0  0  0  0  0  0  0  0  0  0  0
   -0.0060   -2.4824   -1.2037 H   0  0  0  0  0  0  0  0  0  0  0  0
   -0.6794   -5.2973   -2.0086 H   0  0  0  0  0  0  0  0  0  0  0  0
   -1.3791   -3.9241    0.6190 H   0  0  0  0  0  0  0  0  0  0  0  0
    0.4952   -6.3012    0.0623 H   0  0  0  0  0  0  0  0  0  0  0  0
    1.0002   -4.6165    0.5496 H   0  0  0  0  0  0  0  0  0  0  0  0
   -3.1138   -5.4077    0.5996 H   0  0  0  0  0  0  0  0  0  0  0  0
   -1.8757   -6.6139    1.0065 H   0  0  0  0  0  0  0  0  0  0  0  0
   -2.3500   -6.3857   -0.7426 H   0  0  0  0  0  0  0  0  0  0  0  0
    0.8811   -5.5501    2.7013 H   0  0  0  0  0  0  0  0  0  0  0  0
   -0.9251   -5.3251    2.4450 H   0  0  0  0  0  0  0  0  0  0  0  0
   -0.1856   -6.8906    2.1105 H   0  0  0  0  0  0  0  0  0  0  0  0
   -2.5406   -2.4735   -1.8024 N   0  0  0  0  0  0  0  0  0  0  0  0
   -3.8200   -1.9334   -2.2011 C   0  0  2  0  0  0  0  0  0  0  0  0
   -3.7406   -0.5186   -2.6448 C   0  0  0  0  0  0  0  0  0  0  0  0
   -2.8032    0.2350   -2.3747 O   0  0  0  0  0  0  0  0  0  0  0  0
   -4.7110   -1.8587   -0.9018 C   0  0  0  0  0  0  0  0  0  0  0  0
   -4.0343   -0.9698    0.0807 C   0  0  0  0  0  0  0  0  0  0  0  0
   -4.7982   -0.8037    1.3539 C   0  0  0  0  0  0  0  0  0  0  0  0
   -4.0234    0.0887    2.1939 N   0  0  0  0  0  0  0  0  0  0  0  0
   -4.4308    0.5259    3.4771 C   0  0  0  0  0  0  0  0  0  0  0  0
   -3.6177    1.4024    4.2298 N   0  0  0  0  0  0  0  0  0  0  0  0
   -5.5550    0.1028    3.9215 N   0  0  0  0  0  0  0  0  0  0  0  0
   -1.7769   -1.8631   -1.5659 H   0  0  0  0  0  0  0  0  0  0  0  0
   -4.4059   -2.5330   -2.8735 H   0  0  0  0  0  0  0  0  0  0  0  0
   -5.7041   -1.5472   -1.2072 H   0  0  0  0  0  0  0  0  0  0  0  0
   -4.7316   -2.8904   -0.5264 H   0  0  0  0  0  0  0  0  0  0  0  0
   -3.0402   -1.4121    0.3280 H   0  0  0  0  0  0  0  0  0  0  0  0
   -3.8308    0.0495   -0.3077 H   0  0  0  0  0  0  0  0  0  0  0  0
   -5.7696   -0.2779    1.1608 H   0  0  0  0  0  0  0  0  0  0  0  0
   -5.0336   -1.7685    1.8564 H   0  0  0  0  0  0  0  0  0  0  0  0
   -3.0779    0.4682    1.8731 H   0  0  0  0  0  0  0  0  0  0  0  0
   -2.6380    1.1041    4.4403 H   0  0  0  0  0  0  0  0  0  0  0  0
   -3.9530    2.3371    4.5889 H   0  0  0  0  0  0  0  0  0  0  0  0
   -5.8518    0.4296    4.8703 H   0  0  0  0  0  0  0  0  0  0  0  0
   -6.1944   -0.5495    3.3961 H   0  0  0  0  0  0  0  0  0  0  0  0
   -4.7766    0.0294   -3.4387 N   0  0  0  0  0  0  0  0  0  0  0  0
   -4.9807    1.3823   -3.8383 C   0  0  2  0  0  0  0  0  0  0  0  0
   -6.3582    1.6380   -4.3020 C   0  0  0  0  0  0  0  0  0  0  0  0
   -7.1227    0.6090   -4.3527 O   0  0  0  0  0  0  0  0  0  0  0  0
   -3.9702    1.9649   -4.8006 C   0  0  0  0  0  0  0  0  0  0  0  0
   -2.3524    2.3047   -4.1575 S   0  0  0  0  0  0  0  0  0  0  0  0
   -5.4698   -0.6731   -3.7711 H   0  0  0  0  0  0  0  0  0  0  0  0
   -4.7926    1.9983   -2.9005 H   0  0  0  0  0  0  0  0  0  0  0  0
   -4.4254    2.8879   -5.2309 H   0  0  0  0  0  0  0  0  0  0  0  0
   -3.9401    1.2455   -5.6610 H   0  0  0  0  0  0  0  0  0  0  0  0
   -6.8342    2.9329   -4.6812 N   0  0  0  0  0  0  0  0  0  0  0  0
   -8.2077    3.0305   -5.1299 C   0  0  2  0  0  0  0  0  0  0  0  0
   -9.2010    2.3567   -4.2922 C   0  0  0  0  0  0  0  0  0  0  0  0
  -10.3495    2.1471   -4.8113 O   0  0  0  0  0  0  0  0  0  0  0  0
   -8.3622    2.8688   -6.5963 C   0  0  0  0  0  0  0  0  0  0  0  0
   -7.8848    1.5744   -7.1195 C   0  0  0  0  0  0  0  0  0  0  0  0
   -8.6876    0.4557   -7.2312 C   0  0  0  0  0  0  0  0  0  0  0  0
   -6.5442    1.5161   -7.5086 C   0  0  0  0  0  0  0  0  0  0  0  0
   -8.1251   -0.7108   -7.7347 C   0  0  0  0  0  0  0  0  0  0  0  0
   -5.9974    0.3494   -8.0084 C   0  0  0  0  0  0  0  0  0  0  0  0
   -6.7929   -0.7743   -8.1230 C   0  0  0  0  0  0  0  0  0  0  0  0
   -6.2396   -1.9610   -8.6308 O   0  0  0  0  0  0  0  0  0  0  0  0
   -6.1747    3.7358   -4.6138 H   0  0  0  0  0  0  0  0  0  0  0  0
   -8.4497    4.1467   -4.9361 H   0  0  0  0  0  0  0  0  0  0  0  0
   -7.9341    3.7499   -7.0879 H   0  0  0  0  0  0  0  0  0  0  0  0
   -9.4766    2.9069   -6.7944 H   0  0  0  0  0  0  0  0  0  0  0  0
   -9.7238    0.5232   -6.9252 H   0  0  0  0  0  0  0  0  0  0  0  0
   -5.8988    2.3850   -7.4317 H   0  0  0  0  0  0  0  0  0  0  0  0
   -8.7792   -1.5790   -7.8109 H   0  0  0  0  0  0  0  0  0  0  0  0
   -4.9370    0.3450   -8.3045 H   0  0  0  0  0  0  0  0  0  0  0  0
   -5.3794   -2.3115   -8.1859 H   0  0  0  0  0  0  0  0  0  0  0  0
   -9.0218    1.9168   -2.9635 N   0  0  0  0  0  0  0  0  0  0  0  0
  -10.1599    1.2466   -2.3322 C   0  0  2  0  0  0  0  0  0  0  0  0
  -10.6867    2.2474   -1.3330 C   0  0  0  0  0  0  0  0  0  0  0  0
  -10.1287    3.3809   -1.1895 O   0  0  0  0  0  0  0  0  0  0  0  0
   -9.6530    0.0773   -1.5540 C   0  0  0  0  0  0  0  0  0  0  0  0
   -8.1527    2.0659   -2.4415 H   0  0  0  0  0  0  0  0  0  0  0  0
  -10.9654    1.0094   -3.0383 H   0  0  0  0  0  0  0  0  0  0  0  0
   -8.5904    0.2869   -1.2276 H   0  0  0  0  0  0  0  0  0  0  0  0
   -9.6210   -0.8622   -2.1147 H   0  0  0  0  0  0  0  0  0  0  0  0
  -10.1931   -0.0540   -0.5758 H   0  0  0  0  0  0  0  0  0  0  0  0
  -11.8096    1.8812   -0.5724 N   0  0  0  0  0  0  0  0  0  0  0  0
  -12.4578    2.5760   -0.1279 H   0  0  0  0  0  0  0  0  0  0  0  0
  -12.0388    0.8718   -0.4213 H   0  0  0  0  0  0  0  0  0  0  0  0
   -0.5099    1.9247   -3.3598 H   0  0  0  0  0  0  0  0  0  0  0  0
    1.8335    2.7058   -1.7753 H   0  0  0  0  0  0  0  0  0  0  0  0
    0.6129    1.8477    0.3499 H   0  0  0  0  0  0  0  0  0  0  0  0
    1.2448    4.3182   -0.5289 H   0  0  0  0  0  0  0  0  0  0  0  0
   -1.7774    4.2899   -0.6780 H   0  0  0  0  0  0  0  0  0  0  0  0
   -0.6114    4.7952   -3.2272 H   0  0  0  0  0  0  0  0  0  0  0  0
   -0.1547    5.4040    1.1812 H   0  0  0  0  0  0  0  0  0  0  0  0
   -2.0084    4.5140    1.5912 H   0  0  0  0  0  0  0  0  0  0  0  0
    4.8931    1.4057    3.4777 H   0  0  0  0  0  0  0  0  0  0  0  0
    5.9793    0.8452    5.3498 H   0  0  0  0  0  0  0  0  0  0  0  0
    6.0670    0.4138    2.3537 H   0  0  0  0  0  0  0  0  0  0  0  0
    3.8322    0.3293    1.4493 H   0  0  0  0  0  0  0  0  0  0  0  0
    5.1965   -2.2534   -3.9025 H   0  0  0  0  0  0  0  0  0  0  0  0
    3.6588   -1.6603   -5.3551 H   0  0  0  0  0  0  0  0  0  0  0  0
  1  2  1  0
  1 11  1  6
  1 12  1  0
  1 13  1  0
  2  3  1  0
  2  7  1  0
  3  4  1  0
  3 10  1  0
  4  5  1  0
  4 14  1  0
  5  6  1  0
  5  9  1  0
  6  7  1  0
  6 15  1  0
  7  8  1  0
  8 16  1  6
  8 17  1  0
  8171  1  0
  9 19  1  0
  9 21  1  0
 10 18  1  1
 10 20  1  0
 10118  1  0
 23 38  1  0
 38 39  1  0
 38 46  1  0
 39 40  1  0
 39 44  1  0
 39 47  1  1
 40 41  1  0
 40 48  1  6
 40 49  1  0
 41 42  1  0
 41 50  1  1
 41 51  1  0
 42 43  1  0
 42 52  1  6
 42 53  1  0
 43 54  1  6
 43 55  1  0
 44 45  1  0
 44 57  1  0
 57 58  1  0
 57 65  1  0
 58 59  1  0
 58 61  1  0
 58 66  1  1
 59 60  1  0
 59 76  1  0
 61 62  1  0
 61 67  1  6
 61 68  1  0
 62 63  1  0
 62 69  1  6
 62 70  1  0
 63 64  1  0
 63 71  1  1
 63 72  1  0
 64 73  1  6
 64 74  1  0
 64 75  1  0
 78 97  1  0
 97 98  1  0
 97104  1  0
 98 99  1  0
 98101  1  0
 98105  1  1
 99100  1  0
 99113  1  0
101102  1  0
101106  1  6
101107  1  0
102103  1  0
102108  1  1
102109  1  0
103110  1  6
103111  1  0
199207  1  0
207208  1  0
207209  1  0
 22 21  1  0
 23 22  1  0
 24 23  2  0
 25 22  1  0
 26 25  1  0
 27 26  1  0
 28 26  2  0
 29 27  2  0
 30 28  1  0
 30 29  1  0
 31 21  1  0
 22 32  1  6
 33 25  1  0
 34 25  1  0
 35 28  1  0
 36 29  1  0
 37 30  1  0
 56 43  1  0
 77 76  1  0
 78 77  1  0
 79 78  2  0
 80 77  1  0
 81 80  1  0
 82 81  2  0
 83 81  1  0
 84 82  1  0
 85 83  2  0
 86 85  1  0
 86 84  2  0
 87 86  1  0
 88 76  1  0
 77 89  1  1
 90 80  1  0
 91 80  1  0
 92 82  1  0
 93 83  1  0
 94 84  1  0
 95 85  1  0
 96 87  1  0
112103  1  0
114113  1  0
115114  1  0
116115  2  0
117114  1  0
118117  1  0
119113  1  0
114120  1  1
121117  1  0
122117  1  0
123115  1  0
124123  1  0
125124  1  0
126125  2  0
127124  1  0
128127  1  0
129127  1  0
130128  1  0
131123  1  0
124132  1  6
127133  1  1
134128  1  0
135128  1  0
136129  1  0
137129  1  0
138129  1  0
139130  1  0
140130  1  0
141130  1  0
142125  1  0
143142  1  0
144143  1  0
145144  2  0
146143  1  0
147146  1  0
148147  1  0
149148  1  0
150149  1  0
151150  1  0
152150  2  0
153142  1  0
143154  1  6
155146  1  0
156146  1  0
157147  1  0
158147  1  0
159148  1  0
160148  1  0
161149  1  0
162151  1  0
163151  1  0
164152  1  0
165152  1  0
166144  1  0
167166  1  0
168167  1  0
169168  2  0
170167  1  0
171170  1  0
172166  1  0
167173  1  1
174170  1  0
175170  1  0
176168  1  0
177176  1  0
178177  1  0
179178  2  0
180177  1  0
181180  1  0
182181  2  0
183181  1  0
184182  1  0
185183  2  0
186185  1  0
186184  2  0
187186  1  0
188176  1  0
177189  1  6
190180  1  0
191180  1  0
192182  1  0
193183  1  0
194184  1  0
195185  1  0
196187  1  0
197178  1  0
198197  1  0
199198  1  0
200199  2  0
201198  1  0
202197  1  0
198203  1  6
204201  1  0
205201  1  0
206201  1  0
  2210  1  6
  3211  1  1
  4212  1  0
  5213  1  0
  6214  1  0
  7215  1  0
  9216  1  0
 19217  1  0
 44218  1  0
 45219  1  0
 59220  1  0
 60221  1  0
 99222  1  0
100223  1  0
M  CHG  3  43   1 103   1 152   1
M  END
$$$$
BP70
     RDKit          3D

223228  0  0  0  0  0  0  0  0999 V2000
   -1.6002   -4.3761    4.8521 C   0  0  2  0  0  0  0  0  0  0  0  0
   -1.2210   -3.5605    3.6010 C   0  0  1  0  0  0  0  0  0  0  0  0
   -1.7496   -4.1575    2.3488 C   0  0  1  0  0  0  0  0  0  0  0  0
   -2.6066   -3.2661    1.4848 C   0  0  0  0  0  0  0  0  0  0  0  0
   -3.2293   -2.0964    2.1707 C   0  0  0  0  0  0  0  0  0  0  0  0
   -3.1686   -2.2082    3.6721 C   0  0  0  0  0  0  0  0  0  0  0  0
   -1.6228   -2.1420    3.8835 C   0  0  0  0  0  0  0  0  0  0  0  0
   -1.2124   -1.5679    5.1738 C   0  0  2  0  0  0  0  0  0  0  0  0
   -4.4593   -1.4914    1.6513 C   0  0  0  0  0  0  0  0  0  0  0  0
   -0.7918   -5.0551    1.6450 C   0  0  1  0  0  0  0  0  0  0  0  0
   -2.5838   -4.8479    4.6535 H   0  0  0  0  0  0  0  0  0  0  0  0
   -1.5837   -3.8002    5.7683 H   0  0  0  0  0  0  0  0  0  0  0  0
   -0.8953   -5.2593    4.9211 H   0  0  0  0  0  0  0  0  0  0  0  0
   -3.4198   -3.8428    0.9988 H   0  0  0  0  0  0  0  0  0  0  0  0
   -3.5569   -3.1857    4.0317 H   0  0  0  0  0  0  0  0  0  0  0  0
   -0.3534   -2.2076    5.5881 H   0  0  0  0  0  0  0  0  0  0  0  0
   -2.0514   -1.8493    5.9257 H   0  0  0  0  0  0  0  0  0  0  0  0
    0.0203   -5.3234    2.4095 H   0  0  0  0  0  0  0  0  0  0  0  0
   -4.5174   -1.3964    0.2693 O   0  0  0  0  0  0  0  0  0  0  0  0
   -1.2283   -6.1009    1.4780 H   0  0  0  0  0  0  0  0  0  0  0  0
   -4.5304   -0.1500    2.2070 N   0  0  0  0  0  0  0  0  0  0  0  0
   -5.4811    0.7473    1.7017 C   0  0  2  0  0  0  0  0  0  0  0  0
   -5.3151    1.5224    0.5106 C   0  0  0  0  0  0  0  0  0  0  0  0
   -6.2827    2.2933    0.1817 O   0  0  0  0  0  0  0  0  0  0  0  0
   -5.8643    1.6420    2.8926 C   0  0  0  0  0  0  0  0  0  0  0  0
   -6.8508    2.6633    2.5865 C   0  0  0  0  0  0  0  0  0  0  0  0
   -6.7509    3.9402    2.1714 N   0  0  0  0  0  0  0  0  0  0  0  0
   -8.2340    2.4463    2.6776 C   0  0  0  0  0  0  0  0  0  0  0  0
   -7.9640    4.4852    2.0127 C   0  0  0  0  0  0  0  0  0  0  0  0
   -8.8861    3.5572    2.3272 N   0  0  0  0  0  0  0  0  0  0  0  0
   -4.6727   -0.3140    3.2569 H   0  0  0  0  0  0  0  0  0  0  0  0
   -6.4403    0.1251    1.5674 H   0  0  0  0  0  0  0  0  0  0  0  0
   -6.2247    0.9632    3.7178 H   0  0  0  0  0  0  0  0  0  0  0  0
   -4.9612    2.1226    3.3203 H   0  0  0  0  0  0  0  0  0  0  0  0
   -8.7432    1.5342    2.9782 H   0  0  0  0  0  0  0  0  0  0  0  0
   -8.2214    5.4757    1.6948 H   0  0  0  0  0  0  0  0  0  0  0  0
   -9.9377    3.7001    2.2954 H   0  0  0  0  0  0  0  0  0  0  0  0
   -4.2284    1.6058   -0.4061 N   0  0  0  0  0  0  0  0  0  0  0  0
   -4.1779    2.3414   -1.6240 C   0  0  1  0  0  0  0  0  0  0  0  0
   -5.5010    2.8366   -2.1819 C   0  0  2  0  0  0  0  0  0  0  0  0
   -6.4732    1.8305   -2.6122 C   0  0  2  0  0  0  0  0  0  0  0  0
   -5.9840    0.9910   -3.8200 C   0  0  1  0  0  0  0  0  0  0  0  0
   -7.1500    0.0774   -4.0620 N   0  0  2  0  0  0  0  0  0  0  0  0
   -3.0846    3.3291   -1.8501 C   0  0  0  0  0  0  0  0  0  0  0  0
   -3.1667    4.2998   -0.8892 O   0  0  0  0  0  0  0  0  0  0  0  0
   -3.4027    1.0647   -0.1165 H   0  0  0  0  0  0  0  0  0  0  0  0
   -3.9841    1.5089   -2.4015 H   0  0  0  0  0  0  0  0  0  0  0  0
   -5.1657    3.3716   -3.1386 H   0  0  0  0  0  0  0  0  0  0  0  0
   -5.9298    3.6893   -1.5995 H   0  0  0  0  0  0  0  0  0  0  0  0
   -7.4410    2.2392   -2.9665 H   0  0  0  0  0  0  0  0  0  0  0  0
   -6.6076    1.0251   -1.8635 H   0  0  0  0  0  0  0  0  0  0  0  0
   -5.8506    1.5909   -4.7169 H   0  0  0  0  0  0  0  0  0  0  0  0
   -5.1152    0.3917   -3.5930 H   0  0  0  0  0  0  0  0  0  0  0  0
   -6.8945   -0.5598   -4.8814 H   0  0  0  0  0  0  0  0  0  0  0  0
   -7.9884    0.6800   -4.3200 H   0  0  0  0  0  0  0  0  0  0  0  0
   -7.3313   -0.4787   -3.1788 H   0  0  0  0  0  0  0  0  0  0  0  0
   -1.7954    2.8130   -2.1810 N   0  0  0  0  0  0  0  0  0  0  0  0
   -0.7812    3.6573   -2.6465 C   0  0  2  0  0  0  0  0  0  0  0  0
    0.1704    2.9577   -3.6590 C   0  0  0  0  0  0  0  0  0  0  0  0
    1.0204    4.0665   -3.9786 O   0  0  0  0  0  0  0  0  0  0  0  0
    0.1650    4.2787   -1.6617 C   0  0  2  0  0  0  0  0  0  0  0  0
   -0.4225    5.1461   -0.6147 C   0  0  1  0  0  0  0  0  0  0  0  0
    0.6913    5.7770    0.2609 C   0  0  1  0  0  0  0  0  0  0  0  0
   -0.0311    6.6145    1.2925 C   0  0  2  0  0  0  0  0  0  0  0  0
   -1.4655    2.2831   -1.3374 H   0  0  0  0  0  0  0  0  0  0  0  0
   -1.2230    4.4882   -3.2365 H   0  0  0  0  0  0  0  0  0  0  0  0
    0.8867    4.8889   -2.2769 H   0  0  0  0  0  0  0  0  0  0  0  0
    0.7487    3.4339   -1.2080 H   0  0  0  0  0  0  0  0  0  0  0  0
   -1.0334    5.9516   -0.9653 H   0  0  0  0  0  0  0  0  0  0  0  0
   -0.8937    4.4525    0.1536 H   0  0  0  0  0  0  0  0  0  0  0  0
    1.2195    4.9676    0.7994 H   0  0  0  0  0  0  0  0  0  0  0  0
    1.3284    6.4394   -0.3304 H   0  0  0  0  0  0  0  0  0  0  0  0
   -0.7818    5.9564    1.8196 H   0  0  0  0  0  0  0  0  0  0  0  0
   -0.6071    7.4503    0.8660 H   0  0  0  0  0  0  0  0  0  0  0  0
    0.6575    6.9888    2.0759 H   0  0  0  0  0  0  0  0  0  0  0  0
    0.9981    1.9684   -3.1322 N   0  0  0  0  0  0  0  0  0  0  0  0
    1.6902    1.1178   -4.1032 C   0  0  2  0  0  0  0  0  0  0  0  0
    2.4950    0.1027   -3.3695 C   0  0  0  0  0  0  0  0  0  0  0  0
    2.6926    0.3377   -2.1683 O   0  0  0  0  0  0  0  0  0  0  0  0
    2.4745    1.9720   -5.0542 C   0  0  0  0  0  0  0  0  0  0  0  0
    3.2314    1.2102   -6.0834 C   0  0  0  0  0  0  0  0  0  0  0  0
    4.5753    0.8602   -5.9051 C   0  0  0  0  0  0  0  0  0  0  0  0
    2.5442    0.8308   -7.2336 C   0  0  0  0  0  0  0  0  0  0  0  0
    5.2260    0.1446   -6.8555 C   0  0  0  0  0  0  0  0  0  0  0  0
    3.2229    0.1037   -8.1880 C   0  0  0  0  0  0  0  0  0  0  0  0
    4.5576   -0.2446   -8.0130 C   0  0  0  0  0  0  0  0  0  0  0  0
    5.2149   -0.9739   -8.9861 O   0  0  0  0  0  0  0  0  0  0  0  0
    1.6884    2.3330   -2.4707 H   0  0  0  0  0  0  0  0  0  0  0  0
    0.9257    0.5693   -4.6913 H   0  0  0  0  0  0  0  0  0  0  0  0
    1.8172    2.6610   -5.6223 H   0  0  0  0  0  0  0  0  0  0  0  0
    3.2019    2.5504   -4.4106 H   0  0  0  0  0  0  0  0  0  0  0  0
    5.0258    1.1986   -4.9829 H   0  0  0  0  0  0  0  0  0  0  0  0
    1.5027    1.0895   -7.3924 H   0  0  0  0  0  0  0  0  0  0  0  0
    6.2617   -0.1276   -6.7230 H   0  0  0  0  0  0  0  0  0  0  0  0
    2.7400   -0.2201   -9.1014 H   0  0  0  0  0  0  0  0  0  0  0  0
    6.2260   -0.8650   -9.0455 H   0  0  0  0  0  0  0  0  0  0  0  0
    3.0483   -1.0937   -3.8815 N   0  0  0  0  0  0  0  0  0  0  0  0
    3.7136   -2.0920   -2.9934 C   0  0  2  0  0  0  0  0  0  0  0  0
    2.9159   -3.3317   -2.9311 C   0  0  0  0  0  0  0  0  0  0  0  0
    2.9356   -4.1467   -4.0932 O   0  0  0  0  0  0  0  0  0  0  0  0
    4.4449   -1.5891   -1.8356 C   0  0  2  0  0  0  0  0  0  0  0  0
    5.6071   -0.6477   -2.2274 C   0  0  1  0  0  0  0  0  0  0  0  0
    6.5695   -1.3806   -3.0861 N   0  0  2  0  0  0  0  0  0  0  0  0
    2.9645   -1.2363   -4.8869 H   0  0  0  0  0  0  0  0  0  0  0  0
    4.6282   -2.3838   -3.6853 H   0  0  0  0  0  0  0  0  0  0  0  0
    5.0503   -2.4886   -1.4560 H   0  0  0  0  0  0  0  0  0  0  0  0
    3.9465   -1.0893   -1.0268 H   0  0  0  0  0  0  0  0  0  0  0  0
    5.2957    0.1975   -2.8284 H   0  0  0  0  0  0  0  0  0  0  0  0
    6.1511   -0.4074   -1.3148 H   0  0  0  0  0  0  0  0  0  0  0  0
    6.3120   -1.2146   -4.1169 H   0  0  0  0  0  0  0  0  0  0  0  0
    6.5412   -2.4118   -2.8628 H   0  0  0  0  0  0  0  0  0  0  0  0
    7.5469   -0.9667   -2.9030 H   0  0  0  0  0  0  0  0  0  0  0  0
    2.6670   -4.1220   -1.7951 N   0  0  0  0  0  0  0  0  0  0  0  0
    1.5577   -5.1029   -2.0943 C   0  0  2  0  0  0  0  0  0  0  0  0
    0.5209   -4.1311   -2.6716 C   0  0  0  0  0  0  0  0  0  0  0  0
   -0.1179   -4.2865   -3.6766 O   0  0  0  0  0  0  0  0  0  0  0  0
    0.9562   -5.6618   -0.8085 C   0  0  0  0  0  0  0  0  0  0  0  0
   -0.0032   -4.5907    0.1845 S   0  0  0  0  0  0  0  0  0  0  0  0
    3.5306   -4.6603   -1.5606 H   0  0  0  0  0  0  0  0  0  0  0  0
    1.8766   -5.7570   -2.8366 H   0  0  0  0  0  0  0  0  0  0  0  0
    1.7430   -6.2564   -0.2605 H   0  0  0  0  0  0  0  0  0  0  0  0
    0.2713   -6.4791   -1.1844 H   0  0  0  0  0  0  0  0  0  0  0  0
    0.3440   -2.9800   -1.8925 N   0  0  0  0  0  0  0  0  0  0  0  0
   -0.4630   -1.8037   -2.0373 C   0  0  2  0  0  0  0  0  0  0  0  0
   -0.3079   -1.1750   -0.6855 C   0  0  0  0  0  0  0  0  0  0  0  0
   -1.1046   -0.4949   -0.0991 O   0  0  0  0  0  0  0  0  0  0  0  0
   -1.7895   -2.1748   -2.5272 C   0  0  2  0  0  0  0  0  0  0  0  0
   -2.7346   -0.9925   -2.7784 C   0  0  0  0  0  0  0  0  0  0  0  0
   -2.5172   -3.3700   -2.0770 C   0  0  0  0  0  0  0  0  0  0  0  0
   -2.0963   -0.1028   -3.8562 C   0  0  0  0  0  0  0  0  0  0  0  0
    0.9767   -2.9943   -1.0335 H   0  0  0  0  0  0  0  0  0  0  0  0
   -0.1095   -1.0835   -2.7955 H   0  0  0  0  0  0  0  0  0  0  0  0
   -1.5669   -2.4411   -3.6387 H   0  0  0  0  0  0  0  0  0  0  0  0
   -3.6339   -1.4121   -3.2221 H   0  0  0  0  0  0  0  0  0  0  0  0
   -2.8093   -0.5003   -1.8184 H   0  0  0  0  0  0  0  0  0  0  0  0
   -3.2837   -3.1753   -1.2920 H   0  0  0  0  0  0  0  0  0  0  0  0
   -3.1913   -3.6905   -2.9571 H   0  0  0  0  0  0  0  0  0  0  0  0
   -1.9405   -4.2638   -1.8628 H   0  0  0  0  0  0  0  0  0  0  0  0
   -1.2584    0.4337   -3.4146 H   0  0  0  0  0  0  0  0  0  0  0  0
   -2.8680    0.5135   -4.3242 H   0  0  0  0  0  0  0  0  0  0  0  0
   -1.7351   -0.7971   -4.6485 H   0  0  0  0  0  0  0  0  0  0  0  0
    0.9559   -1.3625    0.0391 N   0  0  0  0  0  0  0  0  0  0  0  0
    1.1554   -1.3493    1.4378 C   0  0  2  0  0  0  0  0  0  0  0  0
    0.9637   -0.3190    2.3806 C   0  0  0  0  0  0  0  0  0  0  0  0
    1.2281   -0.5810    3.6217 O   0  0  0  0  0  0  0  0  0  0  0  0
    2.4284   -2.1266    1.7023 C   0  0  0  0  0  0  0  0  0  0  0  0
    2.8492   -2.2796    3.1198 C   0  0  0  0  0  0  0  0  0  0  0  0
    4.0935   -3.2049    3.2079 C   0  0  0  0  0  0  0  0  0  0  0  0
    3.7570   -4.5107    2.6793 N   0  0  0  0  0  0  0  0  0  0  0  0
    4.6619   -5.5989    2.6063 C   0  0  0  0  0  0  0  0  0  0  0  0
    4.2092   -6.8336    2.0648 N   0  0  0  0  0  0  0  0  0  0  0  0
    5.8676   -5.4588    3.0258 N   0  0  0  0  0  0  0  0  0  0  0  0
    1.7491   -1.4780   -0.5924 H   0  0  0  0  0  0  0  0  0  0  0  0
    0.3759   -2.1623    1.8431 H   0  0  0  0  0  0  0  0  0  0  0  0
    2.2867   -3.1078    1.2656 H   0  0  0  0  0  0  0  0  0  0  0  0
    3.2798   -1.5796    1.1517 H   0  0  0  0  0  0  0  0  0  0  0  0
    2.1100   -2.7335    3.7978 H   0  0  0  0  0  0  0  0  0  0  0  0
    3.2234   -1.3615    3.6225 H   0  0  0  0  0  0  0  0  0  0  0  0
    4.8762   -2.7307    2.6267 H   0  0  0  0  0  0  0  0  0  0  0  0
    4.3748   -3.3401    4.2686 H   0  0  0  0  0  0  0  0  0  0  0  0
    2.7785   -4.7120    2.3183 H   0  0  0  0  0  0  0  0  0  0  0  0
    3.3737   -7.3350    2.4813 H   0  0  0  0  0  0  0  0  0  0  0  0
    4.6577   -7.3034    1.2519 H   0  0  0  0  0  0  0  0  0  0  0  0
    6.5467   -6.2432    2.9820 H   0  0  0  0  0  0  0  0  0  0  0  0
    6.2262   -4.5645    3.4254 H   0  0  0  0  0  0  0  0  0  0  0  0
    0.5230    1.0173    2.2559 N   0  0  0  0  0  0  0  0  0  0  0  0
    0.1849    1.9021    3.3245 C   0  0  2  0  0  0  0  0  0  0  0  0
    1.0395    3.0857    3.4211 C   0  0  0  0  0  0  0  0  0  0  0  0
    0.6575    4.0316    4.1656 O   0  0  0  0  0  0  0  0  0  0  0  0
    0.1171    1.2824    4.7298 C   0  0  0  0  0  0  0  0  0  0  0  0
   -0.9420    0.1334    5.2914 S   0  0  0  0  0  0  0  0  0  0  0  0
    0.4521    1.3643    1.2899 H   0  0  0  0  0  0  0  0  0  0  0  0
   -0.8968    2.2344    3.2028 H   0  0  0  0  0  0  0  0  0  0  0  0
   -0.0623    2.2701    5.3523 H   0  0  0  0  0  0  0  0  0  0  0  0
    1.2418    1.1725    5.0732 H   0  0  0  0  0  0  0  0  0  0  0  0
    2.2950    3.2400    2.7294 N   0  0  0  0  0  0  0  0  0  0  0  0
    2.9912    4.4916    2.9770 C   0  0  2  0  0  0  0  0  0  0  0  0
    3.8812    4.9201    1.8908 C   0  0  0  0  0  0  0  0  0  0  0  0
    4.4334    6.0687    2.0401 O   0  0  0  0  0  0  0  0  0  0  0  0
    3.8379    4.3195    4.2761 C   0  0  0  0  0  0  0  0  0  0  0  0
    4.8166    3.2384    4.1408 C   0  0  0  0  0  0  0  0  0  0  0  0
    4.5696    1.9128    4.4609 C   0  0  0  0  0  0  0  0  0  0  0  0
    6.0910    3.5564    3.6526 C   0  0  0  0  0  0  0  0  0  0  0  0
    5.5403    0.9389    4.3061 C   0  0  0  0  0  0  0  0  0  0  0  0
    7.0615    2.5827    3.4976 C   0  0  0  0  0  0  0  0  0  0  0  0
    6.8057    1.2650    3.8195 C   0  0  0  0  0  0  0  0  0  0  0  0
    7.8063    0.3389    3.6456 O   0  0  0  0  0  0  0  0  0  0  0  0
    2.6254    2.4872    2.1209 H   0  0  0  0  0  0  0  0  0  0  0  0
    2.2619    5.2522    3.2708 H   0  0  0  0  0  0  0  0  0  0  0  0
    4.3891    5.2618    4.4643 H   0  0  0  0  0  0  0  0  0  0  0  0
    3.1032    4.2081    5.0818 H   0  0  0  0  0  0  0  0  0  0  0  0
    3.5792    1.6434    4.8441 H   0  0  0  0  0  0  0  0  0  0  0  0
    6.3043    4.5822    3.3971 H   0  0  0  0  0  0  0  0  0  0  0  0
    5.3197   -0.0960    4.5625 H   0  0  0  0  0  0  0  0  0  0  0  0
    8.0143    2.9117    3.1140 H   0  0  0  0  0  0  0  0  0  0  0  0
    8.0436   -0.1229    2.7765 H   0  0  0  0  0  0  0  0  0  0  0  0
    4.1946    4.2190    0.7248 N   0  0  0  0  0  0  0  0  0  0  0  0
    5.0997    4.7741   -0.2433 C   0  0  2  0  0  0  0  0  0  0  0  0
    4.6589    4.7173   -1.6302 C   0  0  0  0  0  0  0  0  0  0  0  0
    3.5467    4.2328   -1.9692 O   0  0  0  0  0  0  0  0  0  0  0  0
    6.4649    4.0953   -0.1757 C   0  0  0  0  0  0  0  0  0  0  0  0
    3.7359    3.2693    0.5978 H   0  0  0  0  0  0  0  0  0  0  0  0
    5.2932    5.8369    0.0399 H   0  0  0  0  0  0  0  0  0  0  0  0
    6.2986    3.0456    0.1526 H   0  0  0  0  0  0  0  0  0  0  0  0
    7.0966    4.5818    0.6083 H   0  0  0  0  0  0  0  0  0  0  0  0
    6.9515    4.0635   -1.1562 H   0  0  0  0  0  0  0  0  0  0  0  0
    5.4801    5.2145   -2.6745 N   0  0  0  0  0  0  0  0  0  0  0  0
    5.3294    4.9732   -3.6891 H   0  0  0  0  0  0  0  0  0  0  0  0
    6.3004    5.8565   -2.5050 H   0  0  0  0  0  0  0  0  0  0  0  0
   -0.1146   -3.6184    3.6013 H   0  0  0  0  0  0  0  0  0  0  0  0
   -2.5500   -4.8950    2.7424 H   0  0  0  0  0  0  0  0  0  0  0  0
   -1.9442   -2.9698    0.6576 H   0  0  0  0  0  0  0  0  0  0  0  0
   -2.4742   -1.2505    1.9949 H   0  0  0  0  0  0  0  0  0  0  0  0
   -3.5313   -1.3569    4.2144 H   0  0  0  0  0  0  0  0  0  0  0  0
   -1.3262   -1.3995    3.1317 H   0  0  0  0  0  0  0  0  0  0  0  0
   -5.3825   -2.0829    1.9633 H   0  0  0  0  0  0  0  0  0  0  0  0
   -5.4245   -1.2555   -0.0780 H   0  0  0  0  0  0  0  0  0  0  0  0
   -3.4171    3.8718   -2.8121 H   0  0  0  0  0  0  0  0  0  0  0  0
   -3.6870    5.1039   -1.1367 H   0  0  0  0  0  0  0  0  0  0  0  0
   -0.3745    2.7603   -4.5926 H   0  0  0  0  0  0  0  0  0  0  0  0
    0.4641    4.8210   -4.2832 H   0  0  0  0  0  0  0  0  0  0  0  0
    1.8653   -2.8261   -3.2322 H   0  0  0  0  0  0  0  0  0  0  0  0
    3.5355   -3.6414   -4.7252 H   0  0  0  0  0  0  0  0  0  0  0  0
  1  2  1  0
  1 11  1  6
  1 12  1  0
  1 13  1  0
  2  3  1  0
  2  7  1  0
  3  4  1  0
  3 10  1  0
  4  5  1  0
  4 14  1  0
  5  6  1  0
  5  9  1  0
  6  7  1  0
  6 15  1  0
  7  8  1  0
  8 16  1  1
  8 17  1  0
  8171  1  0
  9 19  1  0
  9 21  1  0
 10 18  1  1
 10 20  1  0
 10118  1  0
 23 38  1  0
 38 39  1  0
 38 46  1  0
 39 40  1  0
 39 44  1  0
 39 47  1  6
 40 41  1  0
 40 48  1  6
 40 49  1  0
 41 42  1  0
 41 50  1  6
 41 51  1  0
 42 43  1  0
 42 52  1  6
 42 53  1  0
 43 54  1  6
 43 55  1  0
 44 45  1  0
 44 57  1  0
 57 58  1  0
 57 65  1  0
 58 59  1  0
 58 61  1  0
 58 66  1  6
 59 60  1  0
 59 76  1  0
 61 62  1  0
 61 67  1  6
 61 68  1  0
 62 63  1  0
 62 69  1  6
 62 70  1  0
 63 64  1  0
 63 71  1  1
 63 72  1  0
 64 73  1  1
 64 74  1  0
 64 75  1  0
 78 97  1  0
 97 98  1  0
 97104  1  0
 98 99  1  0
 98101  1  0
 98105  1  6
 99100  1  0
 99113  1  0
101102  1  0
101106  1  1
101107  1  0
102103  1  0
102108  1  6
102109  1  0
103110  1  6
103111  1  0
199207  1  0
207208  1  0
207209  1  0
 22 21  1  0
 23 22  1  0
 24 23  2  0
 25 22  1  0
 26 25  1  0
 27 26  1  0
 28 26  2  0
 29 27  2  0
 30 28  1  0
 30 29  1  0
 31 21  1  0
 22 32  1  6
 33 25  1  0
 34 25  1  0
 35 28  1  0
 36 29  1  0
 37 30  1  0
 56 43  1  0
 77 76  1  0
 78 77  1  0
 79 78  2  0
 80 77  1  0
 81 80  1  0
 82 81  2  0
 83 81  1  0
 84 82  1  0
 85 83  2  0
 86 85  1  0
 86 84  2  0
 87 86  1  0
 88 76  1  0
 77 89  1  6
 90 80  1  0
 91 80  1  0
 92 82  1  0
 93 83  1  0
 94 84  1  0
 95 85  1  0
 96 87  1  0
112103  1  0
114113  1  0
115114  1  0
116115  2  0
117114  1  0
118117  1  0
119113  1  0
114120  1  6
121117  1  0
122117  1  0
123115  1  0
124123  1  0
125124  1  0
126125  2  0
127124  1  0
128127  1  0
129127  1  0
130128  1  0
131123  1  0
124132  1  6
127133  1  6
134128  1  0
135128  1  0
136129  1  0
137129  1  0
138129  1  0
139130  1  0
140130  1  0
141130  1  0
142125  1  0
143142  1  0
144143  1  0
145144  2  0
146143  1  0
147146  1  0
148147  1  0
149148  1  0
150149  1  0
151150  1  0
152150  2  0
153142  1  0
143154  1  1
155146  1  0
156146  1  0
157147  1  0
158147  1  0
159148  1  0
160148  1  0
161149  1  0
162151  1  0
163151  1  0
164152  1  0
165152  1  0
166144  1  0
167166  1  0
168167  1  0
169168  2  0
170167  1  0
171170  1  0
172166  1  0
167173  1  6
174170  1  0
175170  1  0
176168  1  0
177176  1  0
178177  1  0
179178  2  0
180177  1  0
181180  1  0
182181  2  0
183181  1  0
184182  1  0
185183  2  0
186185  1  0
186184  2  0
187186  1  0
188176  1  0
177189  1  1
190180  1  0
191180  1  0
192182  1  0
193183  1  0
194184  1  0
195185  1  0
196187  1  0
197178  1  0
198197  1  0
199198  1  0
200199  2  0
201198  1  0
202197  1  0
198203  1  1
204201  1  0
205201  1  0
206201  1  0
  2210  1  6
  3211  1  1
  4212  1  0
  5213  1  0
  6214  1  0
  7215  1  0
  9216  1  0
 19217  1  0
 44218  1  0
 45219  1  0
 59220  1  0
 60221  1  0
 99222  1  0
100223  1  0
M  CHG  3  43   1 103   1 152   1
M  END
$$$$
BP70
     RDKit          3D

223228  0  0  0  0  0  0  0  0999 V2000
    1.0180   -0.0856   -6.6094 C   0  0  2  0  0  0  0  0  0  0  0  0
    1.6576    0.7054   -5.4849 C   0  0  1  0  0  0  0  0  0  0  0  0
    0.6047    1.4346   -4.7709 C   0  0  1  0  0  0  0  0  0  0  0  0
    1.0912    2.2368   -3.5935 C   0  0  0  0  0  0  0  0  0  0  0  0
    2.5510    1.8089   -3.2556 C   0  0  0  0  0  0  0  0  0  0  0  0
    2.3980    0.3042   -3.1276 C   0  0  0  0  0  0  0  0  0  0  0  0
    2.4638   -0.1928   -4.5433 C   0  0  0  0  0  0  0  0  0  0  0  0
    2.1588   -1.6107   -4.7142 C   0  0  2  0  0  0  0  0  0  0  0  0
    2.9728    2.5817   -2.0754 C   0  0  0  0  0  0  0  0  0  0  0  0
   -0.1590    2.4013   -5.6373 C   0  0  1  0  0  0  0  0  0  0  0  0
    1.7580   -0.4736   -7.3423 H   0  0  0  0  0  0  0  0  0  0  0  0
    0.3508    0.5895   -7.1934 H   0  0  0  0  0  0  0  0  0  0  0  0
    0.3455   -0.8773   -6.2145 H   0  0  0  0  0  0  0  0  0  0  0  0
    1.0855    3.3111   -3.7015 H   0  0  0  0  0  0  0  0  0  0  0  0
    3.1229   -0.1809   -2.4874 H   0  0  0  0  0  0  0  0  0  0  0  0
    3.0266   -2.1660   -4.1791 H   0  0  0  0  0  0  0  0  0  0  0  0
    2.3952   -1.9625   -5.7944 H   0  0  0  0  0  0  0  0  0  0  0  0
    0.5795    3.0610   -6.1306 H   0  0  0  0  0  0  0  0  0  0  0  0
    2.8733    3.9563   -2.3805 O   0  0  0  0  0  0  0  0  0  0  0  0
   -0.8846    1.9679   -6.3161 H   0  0  0  0  0  0  0  0  0  0  0  0
    3.9562    2.1837   -1.2141 N   0  0  0  0  0  0  0  0  0  0  0  0
    5.2497    1.7410   -1.4161 C   0  0  2  0  0  0  0  0  0  0  0  0
    5.5989    1.0065   -0.0938 C   0  0  0  0  0  0  0  0  0  0  0  0
    6.5446    0.2179   -0.0493 O   0  0  0  0  0  0  0  0  0  0  0  0
    6.3760    2.6931   -1.5101 C   0  0  0  0  0  0  0  0  0  0  0  0
    6.4655    3.6874   -2.5680 C   0  0  0  0  0  0  0  0  0  0  0  0
    7.5144    4.5868   -2.5582 N   0  0  0  0  0  0  0  0  0  0  0  0
    5.7746    3.9919   -3.6862 C   0  0  0  0  0  0  0  0  0  0  0  0
    7.4181    5.3726   -3.6357 C   0  0  0  0  0  0  0  0  0  0  0  0
    6.3308    5.0231   -4.3676 N   0  0  0  0  0  0  0  0  0  0  0  0
    4.0343    2.9837   -0.4824 H   0  0  0  0  0  0  0  0  0  0  0  0
    5.4148    0.9599   -2.1861 H   0  0  0  0  0  0  0  0  0  0  0  0
    6.5224    3.1781   -0.4861 H   0  0  0  0  0  0  0  0  0  0  0  0
    7.3577    2.1068   -1.5952 H   0  0  0  0  0  0  0  0  0  0  0  0
    4.9034    3.4891   -4.0339 H   0  0  0  0  0  0  0  0  0  0  0  0
    8.1338    6.1549   -3.8400 H   0  0  0  0  0  0  0  0  0  0  0  0
    5.9883    5.4487   -5.2576 H   0  0  0  0  0  0  0  0  0  0  0  0
    4.8705    1.2172    1.0917 N   0  0  0  0  0  0  0  0  0  0  0  0
    5.0842    0.5004    2.3394 C   0  0  1  0  0  0  0  0  0  0  0  0
    6.1387    1.1458    3.1961 C   0  0  2  0  0  0  0  0  0  0  0  0
    5.8781    2.5510    3.6197 C   0  0  2  0  0  0  0  0  0  0  0  0
    7.0293    3.0916    4.4957 C   0  0  1  0  0  0  0  0  0  0  0  0
    6.6393    4.4704    4.8357 N   0  0  2  0  0  0  0  0  0  0  0  0
    3.7695    0.4816    3.1060 C   0  0  0  0  0  0  0  0  0  0  0  0
    3.9414   -0.2607    4.2615 O   0  0  0  0  0  0  0  0  0  0  0  0
    4.1382    1.9210    1.0742 H   0  0  0  0  0  0  0  0  0  0  0  0
    5.4763   -0.5309    2.1481 H   0  0  0  0  0  0  0  0  0  0  0  0
    7.1692    1.0026    2.8005 H   0  0  0  0  0  0  0  0  0  0  0  0
    6.1150    0.5381    4.1568 H   0  0  0  0  0  0  0  0  0  0  0  0
    4.9318    2.6937    4.1446 H   0  0  0  0  0  0  0  0  0  0  0  0
    5.9323    3.2129    2.7003 H   0  0  0  0  0  0  0  0  0  0  0  0
    7.1549    2.5297    5.4233 H   0  0  0  0  0  0  0  0  0  0  0  0
    7.9541    3.2159    3.8833 H   0  0  0  0  0  0  0  0  0  0  0  0
    5.6359    4.4903    5.1507 H   0  0  0  0  0  0  0  0  0  0  0  0
    6.7921    5.0865    3.9760 H   0  0  0  0  0  0  0  0  0  0  0  0
    7.3047    4.8177    5.6099 H   0  0  0  0  0  0  0  0  0  0  0  0
    2.7547    0.0573    2.2584 N   0  0  0  0  0  0  0  0  0  0  0  0
    1.4051   -0.0672    2.6751 C   0  0  2  0  0  0  0  0  0  0  0  0
    0.8334    1.2299    3.2328 C   0  0  0  0  0  0  0  0  0  0  0  0
    1.4907    1.6571    4.3812 O   0  0  0  0  0  0  0  0  0  0  0  0
    1.1493   -1.2842    3.4884 C   0  0  2  0  0  0  0  0  0  0  0  0
   -0.2528   -1.4708    3.9248 C   0  0  1  0  0  0  0  0  0  0  0  0
   -0.4134   -2.7610    4.7642 C   0  0  1  0  0  0  0  0  0  0  0  0
   -1.8821   -2.8157    5.1324 C   0  0  2  0  0  0  0  0  0  0  0  0
    3.0201   -0.6701    1.6100 H   0  0  0  0  0  0  0  0  0  0  0  0
    0.8241   -0.2341    1.7215 H   0  0  0  0  0  0  0  0  0  0  0  0
    1.8962   -1.4169    4.3164 H   0  0  0  0  0  0  0  0  0  0  0  0
    1.3899   -2.1611    2.8016 H   0  0  0  0  0  0  0  0  0  0  0  0
   -0.6829   -0.7019    4.5801 H   0  0  0  0  0  0  0  0  0  0  0  0
   -0.8968   -1.6858    3.0339 H   0  0  0  0  0  0  0  0  0  0  0  0
   -0.1150   -3.6483    4.1732 H   0  0  0  0  0  0  0  0  0  0  0  0
    0.1611   -2.5932    5.6836 H   0  0  0  0  0  0  0  0  0  0  0  0
   -2.2839   -3.8377    5.2165 H   0  0  0  0  0  0  0  0  0  0  0  0
   -2.5044   -2.2309    4.4091 H   0  0  0  0  0  0  0  0  0  0  0  0
   -2.0335   -2.3149    6.1253 H   0  0  0  0  0  0  0  0  0  0  0  0
   -0.5494    1.1758    3.2571 N   0  0  0  0  0  0  0  0  0  0  0  0
   -1.4064    2.2021    3.5940 C   0  0  2  0  0  0  0  0  0  0  0  0
   -1.5196    3.3764    2.7143 C   0  0  0  0  0  0  0  0  0  0  0  0
   -2.2800    4.3108    3.1440 O   0  0  0  0  0  0  0  0  0  0  0  0
   -1.4891    2.6710    5.0347 C   0  0  0  0  0  0  0  0  0  0  0  0
   -1.9177    1.6391    5.9978 C   0  0  0  0  0  0  0  0  0  0  0  0
   -3.2566    1.3691    6.0917 C   0  0  0  0  0  0  0  0  0  0  0  0
   -0.9826    0.9972    6.8364 C   0  0  0  0  0  0  0  0  0  0  0  0
   -3.7981    0.4651    6.9940 C   0  0  0  0  0  0  0  0  0  0  0  0
   -1.5476    0.1020    7.7254 C   0  0  0  0  0  0  0  0  0  0  0  0
   -2.8844   -0.1706    7.8221 C   0  0  0  0  0  0  0  0  0  0  0  0
   -3.3993   -1.0937    8.7473 O   0  0  0  0  0  0  0  0  0  0  0  0
   -0.8966    0.6408    2.4311 H   0  0  0  0  0  0  0  0  0  0  0  0
   -2.4682    1.7124    3.4933 H   0  0  0  0  0  0  0  0  0  0  0  0
   -2.2946    3.4552    5.0238 H   0  0  0  0  0  0  0  0  0  0  0  0
   -0.5698    3.2227    5.3392 H   0  0  0  0  0  0  0  0  0  0  0  0
   -3.9684    1.8662    5.4422 H   0  0  0  0  0  0  0  0  0  0  0  0
    0.0696    1.2007    6.7703 H   0  0  0  0  0  0  0  0  0  0  0  0
   -4.8596    0.2826    7.0340 H   0  0  0  0  0  0  0  0  0  0  0  0
   -0.8819   -0.4413    8.3993 H   0  0  0  0  0  0  0  0  0  0  0  0
   -3.6991   -0.7993    9.6646 H   0  0  0  0  0  0  0  0  0  0  0  0
   -0.9377    3.6560    1.4711 N   0  0  0  0  0  0  0  0  0  0  0  0
   -1.1923    4.9034    0.7745 C   0  0  2  0  0  0  0  0  0  0  0  0
   -2.1365    4.6575   -0.4085 C   0  0  0  0  0  0  0  0  0  0  0  0
   -2.3555    5.9449   -1.0024 O   0  0  0  0  0  0  0  0  0  0  0  0
   -0.0080    5.6900    0.4124 C   0  0  2  0  0  0  0  0  0  0  0  0
    0.8802    6.1751    1.5033 C   0  0  1  0  0  0  0  0  0  0  0  0
    1.4487    5.0581    2.2534 N   0  0  2  0  0  0  0  0  0  0  0  0
   -0.3481    2.9710    1.0335 H   0  0  0  0  0  0  0  0  0  0  0  0
   -1.8168    5.5663    1.4381 H   0  0  0  0  0  0  0  0  0  0  0  0
   -0.2227    6.5587   -0.2500 H   0  0  0  0  0  0  0  0  0  0  0  0
    0.6608    5.0331   -0.2425 H   0  0  0  0  0  0  0  0  0  0  0  0
    1.7445    6.7311    1.0756 H   0  0  0  0  0  0  0  0  0  0  0  0
    0.3549    6.7834    2.2787 H   0  0  0  0  0  0  0  0  0  0  0  0
    1.5847    4.2004    1.6513 H   0  0  0  0  0  0  0  0  0  0  0  0
    0.8615    4.8490    3.1259 H   0  0  0  0  0  0  0  0  0  0  0  0
    2.4332    5.3700    2.6144 H   0  0  0  0  0  0  0  0  0  0  0  0
   -1.6164    3.7428   -1.3458 N   0  0  0  0  0  0  0  0  0  0  0  0
   -2.6467    3.2604   -2.2331 C   0  0  2  0  0  0  0  0  0  0  0  0
   -3.4874    2.3367   -1.4170 C   0  0  0  0  0  0  0  0  0  0  0  0
   -3.3730    2.1782   -0.2018 O   0  0  0  0  0  0  0  0  0  0  0  0
   -2.1284    2.5245   -3.4162 C   0  0  0  0  0  0  0  0  0  0  0  0
   -1.0086    3.5437   -4.4244 S   0  0  0  0  0  0  0  0  0  0  0  0
   -0.8610    4.1203   -1.9629 H   0  0  0  0  0  0  0  0  0  0  0  0
   -3.2185    4.1486   -2.5892 H   0  0  0  0  0  0  0  0  0  0  0  0
   -3.0368    2.3724   -4.0724 H   0  0  0  0  0  0  0  0  0  0  0  0
   -1.7600    1.5139   -3.2204 H   0  0  0  0  0  0  0  0  0  0  0  0
   -4.5294    1.5238   -2.0165 N   0  0  0  0  0  0  0  0  0  0  0  0
   -5.3224    0.6960   -1.1832 C   0  0  2  0  0  0  0  0  0  0  0  0
   -5.1861   -0.6855   -1.6487 C   0  0  0  0  0  0  0  0  0  0  0  0
   -5.8577   -1.5759   -1.1092 O   0  0  0  0  0  0  0  0  0  0  0  0
   -6.7996    1.0038   -1.2109 C   0  0  2  0  0  0  0  0  0  0  0  0
   -7.1182    2.4212   -0.7858 C   0  0  0  0  0  0  0  0  0  0  0  0
   -7.5055    0.1136   -0.2126 C   0  0  0  0  0  0  0  0  0  0  0  0
   -8.6233    2.7327   -0.8157 C   0  0  0  0  0  0  0  0  0  0  0  0
   -4.6027    1.6177   -3.0238 H   0  0  0  0  0  0  0  0  0  0  0  0
   -5.0305    0.7171   -0.1115 H   0  0  0  0  0  0  0  0  0  0  0  0
   -7.1757    0.7795   -2.2187 H   0  0  0  0  0  0  0  0  0  0  0  0
   -6.7881    2.6842    0.2105 H   0  0  0  0  0  0  0  0  0  0  0  0
   -6.7148    3.0703   -1.6158 H   0  0  0  0  0  0  0  0  0  0  0  0
   -6.8673   -0.3652    0.5308 H   0  0  0  0  0  0  0  0  0  0  0  0
   -8.0503   -0.7189   -0.7487 H   0  0  0  0  0  0  0  0  0  0  0  0
   -8.2456    0.6881    0.4193 H   0  0  0  0  0  0  0  0  0  0  0  0
   -9.1211    2.4828    0.1392 H   0  0  0  0  0  0  0  0  0  0  0  0
   -8.7306    3.8573   -0.8912 H   0  0  0  0  0  0  0  0  0  0  0  0
   -9.1113    2.3514   -1.7051 H   0  0  0  0  0  0  0  0  0  0  0  0
   -4.3159   -1.1539   -2.7146 N   0  0  0  0  0  0  0  0  0  0  0  0
   -4.3615   -2.5163   -3.0793 C   0  0  2  0  0  0  0  0  0  0  0  0
   -3.0763   -3.2371   -2.8633 C   0  0  0  0  0  0  0  0  0  0  0  0
   -2.9036   -4.4098   -3.1922 O   0  0  0  0  0  0  0  0  0  0  0  0
   -5.0037   -2.9395   -4.3260 C   0  0  0  0  0  0  0  0  0  0  0  0
   -4.6112   -2.6395   -5.6727 C   0  0  0  0  0  0  0  0  0  0  0  0
   -4.4005   -1.2767   -6.2024 C   0  0  0  0  0  0  0  0  0  0  0  0
   -4.1035   -1.4811   -7.6403 N   0  0  0  0  0  0  0  0  0  0  0  0
   -3.6295   -0.4495   -8.4712 C   0  0  0  0  0  0  0  0  0  0  0  0
   -3.4250   -0.7822   -9.8538 N   0  0  0  0  0  0  0  0  0  0  0  0
   -3.4265    0.6917   -8.0492 N   0  0  0  0  0  0  0  0  0  0  0  0
   -3.7304   -0.4020   -3.0889 H   0  0  0  0  0  0  0  0  0  0  0  0
   -5.0114   -3.0187   -2.2773 H   0  0  0  0  0  0  0  0  0  0  0  0
   -6.1322   -2.8179   -4.2247 H   0  0  0  0  0  0  0  0  0  0  0  0
   -4.9704   -4.0896   -4.2798 H   0  0  0  0  0  0  0  0  0  0  0  0
   -5.4554   -3.0576   -6.3408 H   0  0  0  0  0  0  0  0  0  0  0  0
   -3.7756   -3.3473   -6.0677 H   0  0  0  0  0  0  0  0  0  0  0  0
   -3.6242   -0.6936   -5.7209 H   0  0  0  0  0  0  0  0  0  0  0  0
   -5.3412   -0.6947   -6.1739 H   0  0  0  0  0  0  0  0  0  0  0  0
   -4.2381   -2.4372   -8.0866 H   0  0  0  0  0  0  0  0  0  0  0  0
   -4.1582   -0.3609  -10.5045 H   0  0  0  0  0  0  0  0  0  0  0  0
   -2.6443   -1.3754  -10.1956 H   0  0  0  0  0  0  0  0  0  0  0  0
   -3.0511    1.3998   -8.7905 H   0  0  0  0  0  0  0  0  0  0  0  0
   -3.5931    1.2078   -7.1569 H   0  0  0  0  0  0  0  0  0  0  0  0
   -1.9109   -2.6221   -2.2428 N   0  0  0  0  0  0  0  0  0  0  0  0
   -0.7114   -3.4072   -2.0486 C   0  0  2  0  0  0  0  0  0  0  0  0
   -0.5914   -3.9827   -0.6790 C   0  0  0  0  0  0  0  0  0  0  0  0
   -1.3149   -3.6645    0.2887 O   0  0  0  0  0  0  0  0  0  0  0  0
    0.5731   -2.7129   -2.3763 C   0  0  0  0  0  0  0  0  0  0  0  0
    0.6787   -2.3449   -4.1144 S   0  0  0  0  0  0  0  0  0  0  0  0
   -2.0589   -1.6494   -1.9920 H   0  0  0  0  0  0  0  0  0  0  0  0
   -0.7656   -4.3323   -2.7054 H   0  0  0  0  0  0  0  0  0  0  0  0
    1.3765   -3.4984   -2.1721 H   0  0  0  0  0  0  0  0  0  0  0  0
    0.8130   -1.9001   -1.6776 H   0  0  0  0  0  0  0  0  0  0  0  0
    0.4294   -4.9633   -0.5056 N   0  0  0  0  0  0  0  0  0  0  0  0
    0.6916   -5.6407    0.7510 C   0  0  2  0  0  0  0  0  0  0  0  0
    2.1426   -5.6356    1.0639 C   0  0  0  0  0  0  0  0  0  0  0  0
    2.9880   -5.0803    0.2879 O   0  0  0  0  0  0  0  0  0  0  0  0
    0.3010   -7.1123    0.6120 C   0  0  0  0  0  0  0  0  0  0  0  0
   -1.1312   -7.2824    0.2958 C   0  0  0  0  0  0  0  0  0  0  0  0
   -2.0754   -7.4712    1.2963 C   0  0  0  0  0  0  0  0  0  0  0  0
   -1.5618   -7.2526   -1.0202 C   0  0  0  0  0  0  0  0  0  0  0  0
   -3.4101   -7.6248    0.9860 C   0  0  0  0  0  0  0  0  0  0  0  0
   -2.8981   -7.4040   -1.3514 C   0  0  0  0  0  0  0  0  0  0  0  0
   -3.8056   -7.5896   -0.3288 C   0  0  0  0  0  0  0  0  0  0  0  0
   -5.1576   -7.7412   -0.6774 O   0  0  0  0  0  0  0  0  0  0  0  0
    1.0630   -5.2649   -1.3060 H   0  0  0  0  0  0  0  0  0  0  0  0
    0.0591   -5.2591    1.5776 H   0  0  0  0  0  0  0  0  0  0  0  0
    0.5421   -7.6979    1.5193 H   0  0  0  0  0  0  0  0  0  0  0  0
    0.8980   -7.5469   -0.2051 H   0  0  0  0  0  0  0  0  0  0  0  0
   -1.7830   -7.5119    2.3581 H   0  0  0  0  0  0  0  0  0  0  0  0
   -0.8139   -7.1086   -1.8003 H   0  0  0  0  0  0  0  0  0  0  0  0
   -4.1858   -7.7755    1.7210 H   0  0  0  0  0  0  0  0  0  0  0  0
   -3.2582   -7.3794   -2.3780 H   0  0  0  0  0  0  0  0  0  0  0  0
   -5.4139   -8.0452   -1.6006 H   0  0  0  0  0  0  0  0  0  0  0  0
    2.6038   -6.2635    2.2505 N   0  0  0  0  0  0  0  0  0  0  0  0
    4.0127   -6.2965    2.6289 C   0  0  2  0  0  0  0  0  0  0  0  0
    4.3958   -7.7135    2.7677 C   0  0  0  0  0  0  0  0  0  0  0  0
    3.6102   -8.6807    2.5227 O   0  0  0  0  0  0  0  0  0  0  0  0
    4.1820   -5.6375    3.9832 C   0  0  0  0  0  0  0  0  0  0  0  0
    1.9557   -6.7355    2.9151 H   0  0  0  0  0  0  0  0  0  0  0  0
    4.6257   -5.8051    1.8409 H   0  0  0  0  0  0  0  0  0  0  0  0
    3.2984   -4.9897    4.1389 H   0  0  0  0  0  0  0  0  0  0  0  0
    5.1077   -5.0474    4.0257 H   0  0  0  0  0  0  0  0  0  0  0  0
    4.1604   -6.4283    4.7914 H   0  0  0  0  0  0  0  0  0  0  0  0
    5.7099   -8.1065    3.2007 N   0  0  0  0  0  0  0  0  0  0  0  0
    6.4390   -8.4459    2.5285 H   0  0  0  0  0  0  0  0  0  0  0  0
    6.0016   -8.0710    4.1964 H   0  0  0  0  0  0  0  0  0  0  0  0
    2.3670    1.4041   -5.9559 H   0  0  0  0  0  0  0  0  0  0  0  0
   -0.1748    0.6877   -4.4271 H   0  0  0  0  0  0  0  0  0  0  0  0
    0.5148    1.9348   -2.7028 H   0  0  0  0  0  0  0  0  0  0  0  0
    3.1097    2.0330   -4.1564 H   0  0  0  0  0  0  0  0  0  0  0  0
    1.3786    0.0458   -2.7423 H   0  0  0  0  0  0  0  0  0  0  0  0
    3.5637   -0.0820   -4.8167 H   0  0  0  0  0  0  0  0  0  0  0  0
    2.0008    2.5149   -1.3871 H   0  0  0  0  0  0  0  0  0  0  0  0
    2.9264    4.5127   -1.5499 H   0  0  0  0  0  0  0  0  0  0  0  0
    3.5847    1.5336    3.4843 H   0  0  0  0  0  0  0  0  0  0  0  0
    4.6050   -1.0007    4.1581 H   0  0  0  0  0  0  0  0  0  0  0  0
    1.1351    2.0004    2.4556 H   0  0  0  0  0  0  0  0  0  0  0  0
    1.6465    0.9490    5.0285 H   0  0  0  0  0  0  0  0  0  0  0  0
   -3.0933    4.3644    0.0025 H   0  0  0  0  0  0  0  0  0  0  0  0
   -2.7935    6.5518   -0.3666 H   0  0  0  0  0  0  0  0  0  0  0  0
  1  2  1  0
  1 11  1  6
  1 12  1  0
  1 13  1  0
  2  3  1  0
  2  7  1  0
  3  4  1  0
  3 10  1  0
  4  5  1  0
  4 14  1  0
  5  6  1  0
  5  9  1  0
  6  7  1  0
  6 15  1  0
  7  8  1  0
  8 16  1  1
  8 17  1  0
  8171  1  0
  9 19  1  0
  9 21  1  0
 10 18  1  6
 10 20  1  0
 10118  1  0
 23 38  1  0
 38 39  1  0
 38 46  1  0
 39 40  1  0
 39 44  1  0
 39 47  1  6
 40 41  1  0
 40 48  1  6
 40 49  1  0
 41 42  1  0
 41 50  1  1
 41 51  1  0
 42 43  1  0
 42 52  1  1
 42 53  1  0
 43 54  1  1
 43 55  1  0
 44 45  1  0
 44 57  1  0
 57 58  1  0
 57 65  1  0
 58 59  1  0
 58 61  1  0
 58 66  1  6
 59 60  1  0
 59 76  1  0
 61 62  1  0
 61 67  1  1
 61 68  1  0
 62 63  1  0
 62 69  1  1
 62 70  1  0
 63 64  1  0
 63 71  1  6
 63 72  1  0
 64 73  1  1
 64 74  1  0
 64 75  1  0
 78 97  1  0
 97 98  1  0
 97104  1  0
 98 99  1  0
 98101  1  0
 98105  1  1
 99100  1  0
 99113  1  0
101102  1  0
101106  1  6
101107  1  0
102103  1  0
102108  1  6
102109  1  0
103110  1  6
103111  1  0
199207  1  0
207208  1  0
207209  1  0
 22 21  1  0
 23 22  1  0
 24 23  2  0
 25 22  1  0
 26 25  1  0
 27 26  1  0
 28 26  2  0
 29 27  2  0
 30 28  1  0
 30 29  1  0
 31 21  1  0
 22 32  1  6
 33 25  1  0
 34 25  1  0
 35 28  1  0
 36 29  1  0
 37 30  1  0
 56 43  1  0
 77 76  1  0
 78 77  1  0
 79 78  2  0
 80 77  1  0
 81 80  1  0
 82 81  2  0
 83 81  1  0
 84 82  1  0
 85 83  2  0
 86 85  1  0
 86 84  2  0
 87 86  1  0
 88 76  1  0
 77 89  1  6
 90 80  1  0
 91 80  1  0
 92 82  1  0
 93 83  1  0
 94 84  1  0
 95 85  1  0
 96 87  1  0
112103  1  0
114113  1  0
115114  1  0
116115  2  0
117114  1  0
118117  1  0
119113  1  0
114120  1  6
121117  1  0
122117  1  0
123115  1  0
124123  1  0
125124  1  0
126125  2  0
127124  1  0
128127  1  0
129127  1  0
130128  1  0
131123  1  0
124132  1  1
127133  1  6
134128  1  0
135128  1  0
136129  1  0
137129  1  0
138129  1  0
139130  1  0
140130  1  0
141130  1  0
142125  1  0
143142  1  0
144143  1  0
145144  2  0
146143  1  0
147146  1  0
148147  1  0
149148  1  0
150149  1  0
151150  1  0
152150  2  0
153142  1  0
143154  1  1
155146  1  0
156146  1  0
157147  1  0
158147  1  0
159148  1  0
160148  1  0
161149  1  0
162151  1  0
163151  1  0
164152  1  0
165152  1  0
166144  1  0
167166  1  0
168167  1  0
169168  2  0
170167  1  0
171170  1  0
172166  1  0
167173  1  6
174170  1  0
175170  1  0
176168  1  0
177176  1  0
178177  1  0
179178  2  0
180177  1  0
181180  1  0
182181  2  0
183181  1  0
184182  1  0
185183  2  0
186185  1  0
186184  2  0
187186  1  0
188176  1  0
177189  1  1
190180  1  0
191180  1  0
192182  1  0
193183  1  0
194184  1  0
195185  1  0
196187  1  0
197178  1  0
198197  1  0
199198  1  0
200199  2  0
201198  1  0
202197  1  0
198203  1  6
204201  1  0
205201  1  0
206201  1  0
  2210  1  6
  3211  1  1
  4212  1  0
  5213  1  0
  6214  1  0
  7215  1  0
  9216  1  0
 19217  1  0
 44218  1  0
 45219  1  0
 59220  1  0
 60221  1  0
 99222  1  0
100223  1  0
M  CHG  3  43   1 103   1 152   1
M  END
$$$$
BP70
     RDKit          3D

223228  0  0  0  0  0  0  0  0999 V2000
    1.6818    4.8270   -3.5120 C   0  0  2  0  0  0  0  0  0  0  0  0
    1.4024    3.4616   -3.0764 C   0  0  1  0  0  0  0  0  0  0  0  0
    2.1339    2.8716   -1.9373 C   0  0  1  0  0  0  0  0  0  0  0  0
    2.6907    1.5440   -2.5072 C   0  0  0  0  0  0  0  0  0  0  0  0
    1.5037    0.7630   -3.0047 C   0  0  0  0  0  0  0  0  0  0  0  0
    0.3086    1.4117   -3.5193 C   0  0  0  0  0  0  0  0  0  0  0  0
    0.0294    2.8629   -3.0552 C   0  0  0  0  0  0  0  0  0  0  0  0
   -1.1389    3.4960   -3.7166 C   0  0  2  0  0  0  0  0  0  0  0  0
    2.1822   -0.2514   -3.9020 C   0  0  0  0  0  0  0  0  0  0  0  0
    3.1550    3.5228   -1.0783 C   0  0  1  0  0  0  0  0  0  0  0  0
    2.4155    4.9063   -4.3870 H   0  0  0  0  0  0  0  0  0  0  0  0
    2.2464    5.4715   -2.7755 H   0  0  0  0  0  0  0  0  0  0  0  0
    0.8631    5.4457   -3.8706 H   0  0  0  0  0  0  0  0  0  0  0  0
    3.1669    1.0552   -1.6648 H   0  0  0  0  0  0  0  0  0  0  0  0
   -0.6062    0.8582   -3.1853 H   0  0  0  0  0  0  0  0  0  0  0  0
   -1.2427    2.7677   -4.6394 H   0  0  0  0  0  0  0  0  0  0  0  0
   -0.7551    4.3820   -4.3840 H   0  0  0  0  0  0  0  0  0  0  0  0
    4.1465    3.3297   -1.6720 H   0  0  0  0  0  0  0  0  0  0  0  0
    2.7773    0.5117   -4.9474 O   0  0  0  0  0  0  0  0  0  0  0  0
    3.1241    4.6563   -1.2087 H   0  0  0  0  0  0  0  0  0  0  0  0
    3.3173   -0.7454   -3.1417 N   0  0  0  0  0  0  0  0  0  0  0  0
    4.1757   -1.6676   -3.7288 C   0  0  2  0  0  0  0  0  0  0  0  0
    3.9516   -3.1150   -3.5938 C   0  0  0  0  0  0  0  0  0  0  0  0
    4.4859   -3.8773   -4.4167 O   0  0  0  0  0  0  0  0  0  0  0  0
    5.5580   -1.4894   -3.0428 C   0  0  0  0  0  0  0  0  0  0  0  0
    6.1462   -0.1609   -3.1788 C   0  0  0  0  0  0  0  0  0  0  0  0
    6.9558    0.3059   -4.1734 N   0  0  0  0  0  0  0  0  0  0  0  0
    6.0457    0.8987   -2.3017 C   0  0  0  0  0  0  0  0  0  0  0  0
    7.3263    1.5761   -3.9144 C   0  0  0  0  0  0  0  0  0  0  0  0
    6.7622    1.9227   -2.7674 N   0  0  0  0  0  0  0  0  0  0  0  0
    3.0912   -0.8865   -2.1397 H   0  0  0  0  0  0  0  0  0  0  0  0
    4.3555   -1.4655   -4.8077 H   0  0  0  0  0  0  0  0  0  0  0  0
    5.4549   -1.7616   -1.9495 H   0  0  0  0  0  0  0  0  0  0  0  0
    6.2847   -2.2160   -3.4391 H   0  0  0  0  0  0  0  0  0  0  0  0
    5.4974    0.9629   -1.3558 H   0  0  0  0  0  0  0  0  0  0  0  0
    7.9871    2.1480   -4.5837 H   0  0  0  0  0  0  0  0  0  0  0  0
    6.9054    2.8865   -2.3410 H   0  0  0  0  0  0  0  0  0  0  0  0
    3.1709   -3.7720   -2.5815 N   0  0  0  0  0  0  0  0  0  0  0  0
    3.0496   -5.2034   -2.5553 C   0  0  1  0  0  0  0  0  0  0  0  0
    4.1851   -5.8099   -1.7195 C   0  0  2  0  0  0  0  0  0  0  0  0
    4.2890   -5.3291   -0.3300 C   0  0  2  0  0  0  0  0  0  0  0  0
    5.4123   -6.0735    0.4134 C   0  0  1  0  0  0  0  0  0  0  0  0
    6.7034   -5.8827   -0.2563 N   0  0  2  0  0  0  0  0  0  0  0  0
    1.7426   -5.8683   -2.3648 C   0  0  0  0  0  0  0  0  0  0  0  0
    2.0870   -7.2739   -2.5443 O   0  0  0  0  0  0  0  0  0  0  0  0
    2.7492   -3.1146   -1.9151 H   0  0  0  0  0  0  0  0  0  0  0  0
    3.3797   -5.5401   -3.6065 H   0  0  0  0  0  0  0  0  0  0  0  0
    5.1327   -5.5556   -2.2393 H   0  0  0  0  0  0  0  0  0  0  0  0
    4.0358   -6.8941   -1.7318 H   0  0  0  0  0  0  0  0  0  0  0  0
    3.4209   -5.3291    0.2918 H   0  0  0  0  0  0  0  0  0  0  0  0
    4.6548   -4.2369   -0.3036 H   0  0  0  0  0  0  0  0  0  0  0  0
    5.4625   -5.6950    1.4688 H   0  0  0  0  0  0  0  0  0  0  0  0
    5.1386   -7.1412    0.5185 H   0  0  0  0  0  0  0  0  0  0  0  0
    6.9065   -6.7494   -0.8617 H   0  0  0  0  0  0  0  0  0  0  0  0
    7.4739   -5.8006    0.4985 H   0  0  0  0  0  0  0  0  0  0  0  0
    6.6715   -5.0041   -0.8304 H   0  0  0  0  0  0  0  0  0  0  0  0
    1.1540   -5.8436   -1.0752 N   0  0  0  0  0  0  0  0  0  0  0  0
   -0.1730   -6.2383   -0.8378 C   0  0  2  0  0  0  0  0  0  0  0  0
   -0.5768   -5.6821    0.5926 C   0  0  0  0  0  0  0  0  0  0  0  0
   -1.9157   -6.1692    0.8074 O   0  0  0  0  0  0  0  0  0  0  0  0
   -0.6364   -7.6310   -0.7923 C   0  0  2  0  0  0  0  0  0  0  0  0
   -0.5724   -8.5616   -1.9129 C   0  0  1  0  0  0  0  0  0  0  0  0
   -1.2956   -8.1455   -3.1726 C   0  0  1  0  0  0  0  0  0  0  0  0
   -2.7701   -7.9458   -2.9338 C   0  0  2  0  0  0  0  0  0  0  0  0
    1.7227   -6.5231   -0.4245 H   0  0  0  0  0  0  0  0  0  0  0  0
   -0.8158   -5.6941   -1.5767 H   0  0  0  0  0  0  0  0  0  0  0  0
   -1.7293   -7.5996   -0.4495 H   0  0  0  0  0  0  0  0  0  0  0  0
   -0.1595   -8.1660    0.0985 H   0  0  0  0  0  0  0  0  0  0  0  0
    0.3366   -9.0823   -2.1693 H   0  0  0  0  0  0  0  0  0  0  0  0
   -1.2385   -9.4675   -1.5582 H   0  0  0  0  0  0  0  0  0  0  0  0
   -0.7714   -7.3003   -3.6107 H   0  0  0  0  0  0  0  0  0  0  0  0
   -1.2118   -8.9952   -3.9026 H   0  0  0  0  0  0  0  0  0  0  0  0
   -3.2663   -7.8498   -3.9288 H   0  0  0  0  0  0  0  0  0  0  0  0
   -3.0231   -7.0372   -2.3600 H   0  0  0  0  0  0  0  0  0  0  0  0
   -3.1609   -8.8433   -2.4356 H   0  0  0  0  0  0  0  0  0  0  0  0
   -0.6857   -4.3087    0.6097 N   0  0  0  0  0  0  0  0  0  0  0  0
    0.4068   -3.4232    0.3683 C   0  0  2  0  0  0  0  0  0  0  0  0
    0.7838   -2.8454    1.6726 C   0  0  0  0  0  0  0  0  0  0  0  0
    0.1946   -3.1350    2.7219 O   0  0  0  0  0  0  0  0  0  0  0  0
   -0.2815   -2.3144   -0.4727 C   0  0  0  0  0  0  0  0  0  0  0  0
   -0.8979   -2.8249   -1.7211 C   0  0  0  0  0  0  0  0  0  0  0  0
   -2.2223   -3.2903   -1.7419 C   0  0  0  0  0  0  0  0  0  0  0  0
   -0.2547   -2.8565   -2.9316 C   0  0  0  0  0  0  0  0  0  0  0  0
   -2.8216   -3.7432   -2.8994 C   0  0  0  0  0  0  0  0  0  0  0  0
   -0.7905   -3.2928   -4.1132 C   0  0  0  0  0  0  0  0  0  0  0  0
   -2.1110   -3.7448   -4.0804 C   0  0  0  0  0  0  0  0  0  0  0  0
   -2.6301   -4.1832   -5.2891 O   0  0  0  0  0  0  0  0  0  0  0  0
   -1.4677   -3.8329    1.0588 H   0  0  0  0  0  0  0  0  0  0  0  0
    1.2258   -3.7468   -0.2378 H   0  0  0  0  0  0  0  0  0  0  0  0
   -1.1419   -2.0627    0.1789 H   0  0  0  0  0  0  0  0  0  0  0  0
    0.4491   -1.5303   -0.5936 H   0  0  0  0  0  0  0  0  0  0  0  0
   -2.8090   -3.3309   -0.8512 H   0  0  0  0  0  0  0  0  0  0  0  0
    0.7566   -2.5048   -2.9479 H   0  0  0  0  0  0  0  0  0  0  0  0
   -3.8411   -4.1060   -2.9249 H   0  0  0  0  0  0  0  0  0  0  0  0
   -0.2365   -3.2979   -5.0294 H   0  0  0  0  0  0  0  0  0  0  0  0
   -2.1168   -4.6310   -6.0299 H   0  0  0  0  0  0  0  0  0  0  0  0
    1.8686   -1.8925    1.8542 N   0  0  0  0  0  0  0  0  0  0  0  0
    2.2012   -1.3611    3.1513 C   0  0  2  0  0  0  0  0  0  0  0  0
    2.5726    0.0370    3.3385 C   0  0  0  0  0  0  0  0  0  0  0  0
    2.8174    0.2707    4.7262 O   0  0  0  0  0  0  0  0  0  0  0  0
    3.3718   -2.2657    3.6288 C   0  0  2  0  0  0  0  0  0  0  0  0
    2.9601   -3.7052    3.7181 C   0  0  1  0  0  0  0  0  0  0  0  0
    4.1542   -4.4600    4.1691 N   0  0  2  0  0  0  0  0  0  0  0  0
    2.3430   -1.6708    0.9772 H   0  0  0  0  0  0  0  0  0  0  0  0
    1.3751   -1.6499    3.8721 H   0  0  0  0  0  0  0  0  0  0  0  0
    3.6992   -1.8637    4.6062 H   0  0  0  0  0  0  0  0  0  0  0  0
    4.2240   -2.1760    2.9581 H   0  0  0  0  0  0  0  0  0  0  0  0
    2.1823   -3.8394    4.4666 H   0  0  0  0  0  0  0  0  0  0  0  0
    2.7356   -4.1243    2.7321 H   0  0  0  0  0  0  0  0  0  0  0  0
    4.9477   -4.2961    3.4774 H   0  0  0  0  0  0  0  0  0  0  0  0
    3.9198   -5.5179    4.1676 H   0  0  0  0  0  0  0  0  0  0  0  0
    4.4378   -4.1574    5.1441 H   0  0  0  0  0  0  0  0  0  0  0  0
    1.7844    1.0455    2.7584 N   0  0  0  0  0  0  0  0  0  0  0  0
    2.0779    2.4087    2.9944 C   0  0  2  0  0  0  0  0  0  0  0  0
    0.9528    3.2847    3.4911 C   0  0  0  0  0  0  0  0  0  0  0  0
    1.1274    4.4502    3.7660 O   0  0  0  0  0  0  0  0  0  0  0  0
    3.1296    3.0488    2.1535 C   0  0  0  0  0  0  0  0  0  0  0  0
    3.3928    3.1382    0.5366 S   0  0  0  0  0  0  0  0  0  0  0  0
    1.9737    0.9186    1.7064 H   0  0  0  0  0  0  0  0  0  0  0  0
    2.6112    2.2887    4.0572 H   0  0  0  0  0  0  0  0  0  0  0  0
    4.1408    2.5970    2.6289 H   0  0  0  0  0  0  0  0  0  0  0  0
    3.3324    4.1113    2.6145 H   0  0  0  0  0  0  0  0  0  0  0  0
   -0.3731    2.7803    3.6551 N   0  0  0  0  0  0  0  0  0  0  0  0
   -1.5596    3.1883    4.1580 C   0  0  2  0  0  0  0  0  0  0  0  0
   -2.8034    3.7504    3.7577 C   0  0  0  0  0  0  0  0  0  0  0  0
   -3.7792    3.6160    4.6348 O   0  0  0  0  0  0  0  0  0  0  0  0
   -1.4445    3.3238    5.7072 C   0  0  2  0  0  0  0  0  0  0  0  0
   -0.5415    4.2600    6.3192 C   0  0  0  0  0  0  0  0  0  0  0  0
   -1.0178    1.9534    6.3080 C   0  0  0  0  0  0  0  0  0  0  0  0
   -0.6525    5.7200    6.1282 C   0  0  0  0  0  0  0  0  0  0  0  0
   -0.3518    1.7524    3.2105 H   0  0  0  0  0  0  0  0  0  0  0  0
   -2.0111    2.0552    4.3000 H   0  0  0  0  0  0  0  0  0  0  0  0
   -2.4817    3.4802    6.0929 H   0  0  0  0  0  0  0  0  0  0  0  0
    0.5474    3.9138    6.3592 H   0  0  0  0  0  0  0  0  0  0  0  0
   -0.7674    4.1376    7.4437 H   0  0  0  0  0  0  0  0  0  0  0  0
   -1.3990    1.9664    7.3451 H   0  0  0  0  0  0  0  0  0  0  0  0
   -1.5192    1.1410    5.7509 H   0  0  0  0  0  0  0  0  0  0  0  0
    0.0745    1.8908    6.3636 H   0  0  0  0  0  0  0  0  0  0  0  0
   -1.7332    5.9937    6.2660 H   0  0  0  0  0  0  0  0  0  0  0  0
   -0.1489    6.1981    5.3070 H   0  0  0  0  0  0  0  0  0  0  0  0
   -0.1743    6.1999    7.0482 H   0  0  0  0  0  0  0  0  0  0  0  0
   -3.3025    4.4676    2.6259 N   0  0  0  0  0  0  0  0  0  0  0  0
   -4.7886    4.5044    2.4255 C   0  0  2  0  0  0  0  0  0  0  0  0
   -5.2045    4.2295    1.0497 C   0  0  0  0  0  0  0  0  0  0  0  0
   -6.2302    3.5484    0.8258 O   0  0  0  0  0  0  0  0  0  0  0  0
   -5.4025    5.7433    3.0151 C   0  0  0  0  0  0  0  0  0  0  0  0
   -6.9585    5.6844    2.9248 C   0  0  0  0  0  0  0  0  0  0  0  0
   -7.4313    4.5156    3.7565 C   0  0  0  0  0  0  0  0  0  0  0  0
   -8.8620    4.3257    3.8425 N   0  0  0  0  0  0  0  0  0  0  0  0
   -9.2572    3.1998    4.6695 C   0  0  0  0  0  0  0  0  0  0  0  0
  -10.6211    2.8883    4.8754 N   0  0  0  0  0  0  0  0  0  0  0  0
   -8.3799    2.4534    5.2562 N   0  0  0  0  0  0  0  0  0  0  0  0
   -2.6420    4.9328    2.0562 H   0  0  0  0  0  0  0  0  0  0  0  0
   -5.2038    3.6833    3.0407 H   0  0  0  0  0  0  0  0  0  0  0  0
   -5.1138    5.8527    4.0758 H   0  0  0  0  0  0  0  0  0  0  0  0
   -5.1065    6.6200    2.4257 H   0  0  0  0  0  0  0  0  0  0  0  0
   -7.1517    5.4160    1.8709 H   0  0  0  0  0  0  0  0  0  0  0  0
   -7.3445    6.6433    3.2281 H   0  0  0  0  0  0  0  0  0  0  0  0
   -7.1019    4.6221    4.8274 H   0  0  0  0  0  0  0  0  0  0  0  0
   -7.0477    3.5335    3.4035 H   0  0  0  0  0  0  0  0  0  0  0  0
   -9.5690    4.9224    3.3630 H   0  0  0  0  0  0  0  0  0  0  0  0
  -11.0973    2.0429    4.4683 H   0  0  0  0  0  0  0  0  0  0  0  0
  -11.2507    3.5013    5.4758 H   0  0  0  0  0  0  0  0  0  0  0  0
   -7.3363    2.6155    5.1711 H   0  0  0  0  0  0  0  0  0  0  0  0
   -8.6380    1.6366    5.8493 H   0  0  0  0  0  0  0  0  0  0  0  0
   -4.5603    4.6873   -0.1804 N   0  0  0  0  0  0  0  0  0  0  0  0
   -4.8688    3.9354   -1.3711 C   0  0  2  0  0  0  0  0  0  0  0  0
   -4.1699    2.4997   -0.9776 C   0  0  0  0  0  0  0  0  0  0  0  0
   -4.6613    1.5203   -1.4672 O   0  0  0  0  0  0  0  0  0  0  0  0
   -4.1760    4.2049   -2.6676 C   0  0  0  0  0  0  0  0  0  0  0  0
   -2.6622    3.8510   -3.1911 S   0  0  0  0  0  0  0  0  0  0  0  0
   -4.0030    5.5081   -0.0719 H   0  0  0  0  0  0  0  0  0  0  0  0
   -5.8491    3.5759   -1.3604 H   0  0  0  0  0  0  0  0  0  0  0  0
   -4.5774    5.3014   -2.8892 H   0  0  0  0  0  0  0  0  0  0  0  0
   -4.9234    3.7146   -3.4303 H   0  0  0  0  0  0  0  0  0  0  0  0
   -3.1054    2.7476   -0.1374 N   0  0  0  0  0  0  0  0  0  0  0  0
   -2.1005    2.0800    0.5558 C   0  0  2  0  0  0  0  0  0  0  0  0
   -0.9287    2.9887    0.4459 C   0  0  0  0  0  0  0  0  0  0  0  0
    0.1549    2.5143    0.6878 O   0  0  0  0  0  0  0  0  0  0  0  0
   -1.8453    0.6304    0.3707 C   0  0  0  0  0  0  0  0  0  0  0  0
   -2.9744   -0.2079    0.7885 C   0  0  0  0  0  0  0  0  0  0  0  0
   -3.1470   -0.3214    2.1922 C   0  0  0  0  0  0  0  0  0  0  0  0
   -3.8351   -0.9260    0.0387 C   0  0  0  0  0  0  0  0  0  0  0  0
   -4.1413   -1.1267    2.7071 C   0  0  0  0  0  0  0  0  0  0  0  0
   -4.8405   -1.7388    0.5278 C   0  0  0  0  0  0  0  0  0  0  0  0
   -4.9973   -1.8427    1.8979 C   0  0  0  0  0  0  0  0  0  0  0  0
   -6.0005   -2.6540    2.4302 O   0  0  0  0  0  0  0  0  0  0  0  0
   -3.0220    3.8229    0.0781 H   0  0  0  0  0  0  0  0  0  0  0  0
   -2.4272    1.9573    1.6738 H   0  0  0  0  0  0  0  0  0  0  0  0
   -0.9652    0.3836    1.0258 H   0  0  0  0  0  0  0  0  0  0  0  0
   -1.5471    0.5046   -0.6827 H   0  0  0  0  0  0  0  0  0  0  0  0
   -2.5001    0.2094    2.8747 H   0  0  0  0  0  0  0  0  0  0  0  0
   -3.7265   -0.8778   -1.0446 H   0  0  0  0  0  0  0  0  0  0  0  0
   -4.2879   -1.2167    3.7958 H   0  0  0  0  0  0  0  0  0  0  0  0
   -5.4726   -2.2901   -0.1783 H   0  0  0  0  0  0  0  0  0  0  0  0
   -5.7359   -3.5995    2.6388 H   0  0  0  0  0  0  0  0  0  0  0  0
   -0.9936    4.3674    0.0825 N   0  0  0  0  0  0  0  0  0  0  0  0
    0.1320    5.2611   -0.0078 C   0  0  2  0  0  0  0  0  0  0  0  0
    0.2866    6.3285    1.0119 C   0  0  0  0  0  0  0  0  0  0  0  0
    1.3756    7.0159    0.9088 O   0  0  0  0  0  0  0  0  0  0  0  0
   -0.1323    6.2394   -1.1769 C   0  0  0  0  0  0  0  0  0  0  0  0
   -1.8876    4.8515   -0.1793 H   0  0  0  0  0  0  0  0  0  0  0  0
    1.0046    4.6916   -0.0312 H   0  0  0  0  0  0  0  0  0  0  0  0
   -0.8417    7.0172   -0.8081 H   0  0  0  0  0  0  0  0  0  0  0  0
    0.7796    6.7373   -1.4768 H   0  0  0  0  0  0  0  0  0  0  0  0
   -0.5564    5.6334   -1.9655 H   0  0  0  0  0  0  0  0  0  0  0  0
   -0.5821    6.6630    2.0269 N   0  0  0  0  0  0  0  0  0  0  0  0
   -0.4336    6.5814    3.0478 H   0  0  0  0  0  0  0  0  0  0  0  0
   -1.5359    7.0565    1.7577 H   0  0  0  0  0  0  0  0  0  0  0  0
    1.8275    2.9187   -4.0249 H   0  0  0  0  0  0  0  0  0  0  0  0
    1.4394    2.4404   -1.2187 H   0  0  0  0  0  0  0  0  0  0  0  0
    3.3989    1.7895   -3.3392 H   0  0  0  0  0  0  0  0  0  0  0  0
    1.1815    0.1510   -2.1000 H   0  0  0  0  0  0  0  0  0  0  0  0
    0.2919    1.4130   -4.6563 H   0  0  0  0  0  0  0  0  0  0  0  0
   -0.2595    2.7235   -2.0160 H   0  0  0  0  0  0  0  0  0  0  0  0
    1.5694   -0.9694   -4.3902 H   0  0  0  0  0  0  0  0  0  0  0  0
    2.1167    1.0099   -5.4541 H   0  0  0  0  0  0  0  0  0  0  0  0
    1.0349   -5.5770   -3.1416 H   0  0  0  0  0  0  0  0  0  0  0  0
    2.1858   -7.7047   -1.6821 H   0  0  0  0  0  0  0  0  0  0  0  0
    0.0218   -6.1295    1.3644 H   0  0  0  0  0  0  0  0  0  0  0  0
   -2.5458   -5.5382    0.3570 H   0  0  0  0  0  0  0  0  0  0  0  0
    3.6177    0.1811    2.9167 H   0  0  0  0  0  0  0  0  0  0  0  0
    1.9654    0.3471    5.2215 H   0  0  0  0  0  0  0  0  0  0  0  0
  1  2  1  0
  1 11  1  6
  1 12  1  0
  1 13  1  0
  2  3  1  0
  2  7  1  0
  3  4  1  0
  3 10  1  0
  4  5  1  0
  4 14  1  0
  5  6  1  0
  5  9  1  0
  6  7  1  0
  6 15  1  0
  7  8  1  0
  8 16  1  6
  8 17  1  0
  8171  1  0
  9 19  1  0
  9 21  1  0
 10 18  1  6
 10 20  1  0
 10118  1  0
 23 38  1  0
 38 39  1  0
 38 46  1  0
 39 40  1  0
 39 44  1  0
 39 47  1  6
 40 41  1  0
 40 48  1  6
 40 49  1  0
 41 42  1  0
 41 50  1  1
 41 51  1  0
 42 43  1  0
 42 52  1  1
 42 53  1  0
 43 54  1  6
 43 55  1  0
 44 45  1  0
 44 57  1  0
 57 58  1  0
 57 65  1  0
 58 59  1  0
 58 61  1  0
 58 66  1  6
 59 60  1  0
 59 76  1  0
 61 62  1  0
 61 67  1  1
 61 68  1  0
 62 63  1  0
 62 69  1  6
 62 70  1  0
 63 64  1  0
 63 71  1  6
 63 72  1  0
 64 73  1  6
 64 74  1  0
 64 75  1  0
 78 97  1  0
 97 98  1  0
 97104  1  0
 98 99  1  0
 98101  1  0
 98105  1  1
 99100  1  0
 99113  1  0
101102  1  0
101106  1  1
101107  1  0
102103  1  0
102108  1  1
102109  1  0
103110  1  6
103111  1  0
199207  1  0
207208  1  0
207209  1  0
 22 21  1  0
 23 22  1  0
 24 23  2  0
 25 22  1  0
 26 25  1  0
 27 26  1  0
 28 26  2  0
 29 27  2  0
 30 28  1  0
 30 29  1  0
 31 21  1  0
 22 32  1  6
 33 25  1  0
 34 25  1  0
 35 28  1  0
 36 29  1  0
 37 30  1  0
 56 43  1  0
 77 76  1  0
 78 77  1  0
 79 78  2  0
 80 77  1  0
 81 80  1  0
 82 81  2  0
 83 81  1  0
 84 82  1  0
 85 83  2  0
 86 85  1  0
 86 84  2  0
 87 86  1  0
 88 76  1  0
 77 89  1  6
 90 80  1  0
 91 80  1  0
 92 82  1  0
 93 83  1  0
 94 84  1  0
 95 85  1  0
 96 87  1  0
112103  1  0
114113  1  0
115114  1  0
116115  2  0
117114  1  0
118117  1  0
119113  1  0
114120  1  1
121117  1  0
122117  1  0
123115  1  0
124123  1  0
125124  1  0
126125  2  0
127124  1  0
128127  1  0
129127  1  0
130128  1  0
131123  1  0
124132  1  1
127133  1  1
134128  1  0
135128  1  0
136129  1  0
137129  1  0
138129  1  0
139130  1  0
140130  1  0
141130  1  0
142125  1  0
143142  1  0
144143  1  0
145144  2  0
146143  1  0
147146  1  0
148147  1  0
149148  1  0
150149  1  0
151150  1  0
152150  2  0
153142  1  0
143154  1  1
155146  1  0
156146  1  0
157147  1  0
158147  1  0
159148  1  0
160148  1  0
161149  1  0
162151  1  0
163151  1  0
164152  1  0
165152  1  0
166144  1  0
167166  1  0
168167  1  0
169168  2  0
170167  1  0
171170  1  0
172166  1  0
167173  1  6
174170  1  0
175170  1  0
176168  1  0
177176  1  0
178177  1  0
179178  2  0
180177  1  0
181180  1  0
182181  2  0
183181  1  0
184182  1  0
185183  2  0
186185  1  0
186184  2  0
187186  1  0
188176  1  0
177189  1  1
190180  1  0
191180  1  0
192182  1  0
193183  1  0
194184  1  0
195185  1  0
196187  1  0
197178  1  0
198197  1  0
199198  1  0
200199  2  0
201198  1  0
202197  1  0
198203  1  6
204201  1  0
205201  1  0
206201  1  0
  2210  1  6
  3211  1  1
  4212  1  0
  5213  1  0
  6214  1  0
  7215  1  0
  9216  1  0
 19217  1  0
 44218  1  0
 45219  1  0
 59220  1  0
 60221  1  0
 99222  1  0
100223  1  0
M  CHG  3  43   1 103   1 152   1
M  END
$$$$
BP70
     RDKit          3D

223228  0  0  0  0  0  0  0  0999 V2000
    0.5073    2.6093   -2.7629 C   0  0  2  0  0  0  0  0  0  0  0  0
    1.0820    1.6376   -1.7106 C   0  0  1  0  0  0  0  0  0  0  0  0
    1.0255    0.2680   -2.2936 C   0  0  1  0  0  0  0  0  0  0  0  0
    2.1897   -0.0562   -3.2302 C   0  0  0  0  0  0  0  0  0  0  0  0
    3.5006    0.4999   -2.8296 C   0  0  0  0  0  0  0  0  0  0  0  0
    3.4443    0.9948   -1.4025 C   0  0  0  0  0  0  0  0  0  0  0  0
    2.4063    2.1164   -1.2749 C   0  0  0  0  0  0  0  0  0  0  0  0
    2.5946    2.7246    0.0459 C   0  0  2  0  0  0  0  0  0  0  0  0
    4.7160   -0.3249   -3.1140 C   0  0  0  0  0  0  0  0  0  0  0  0
    0.7249   -0.8633   -1.3682 C   0  0  1  0  0  0  0  0  0  0  0  0
    0.4338    3.6385   -2.3749 H   0  0  0  0  0  0  0  0  0  0  0  0
   -0.4784    2.2671   -3.0963 H   0  0  0  0  0  0  0  0  0  0  0  0
    1.2352    2.5943   -3.5924 H   0  0  0  0  0  0  0  0  0  0  0  0
    2.1284   -1.1414   -3.3428 H   0  0  0  0  0  0  0  0  0  0  0  0
    4.4392    1.5111   -1.2379 H   0  0  0  0  0  0  0  0  0  0  0  0
    3.6437    3.2442   -0.0338 H   0  0  0  0  0  0  0  0  0  0  0  0
    2.9193    1.9075    0.8194 H   0  0  0  0  0  0  0  0  0  0  0  0
    1.0420   -1.8074   -1.9471 H   0  0  0  0  0  0  0  0  0  0  0  0
    5.6257   -0.1231   -2.0760 O   0  0  0  0  0  0  0  0  0  0  0  0
    1.3433   -0.8735   -0.4429 H   0  0  0  0  0  0  0  0  0  0  0  0
    4.5021   -1.7192   -3.3781 N   0  0  0  0  0  0  0  0  0  0  0  0
    4.1088   -2.5587   -2.3362 C   0  0  2  0  0  0  0  0  0  0  0  0
    5.2290   -2.9717   -1.3790 C   0  0  0  0  0  0  0  0  0  0  0  0
    6.4165   -2.9202   -1.6609 O   0  0  0  0  0  0  0  0  0  0  0  0
    3.6825   -3.8872   -3.0250 C   0  0  0  0  0  0  0  0  0  0  0  0
    2.6251   -3.8206   -3.9837 C   0  0  0  0  0  0  0  0  0  0  0  0
    1.3048   -3.9539   -3.7372 N   0  0  0  0  0  0  0  0  0  0  0  0
    2.6932   -3.6303   -5.3633 C   0  0  0  0  0  0  0  0  0  0  0  0
    0.5894   -3.8572   -4.8788 C   0  0  0  0  0  0  0  0  0  0  0  0
    1.4580   -3.6553   -5.8838 N   0  0  0  0  0  0  0  0  0  0  0  0
    3.9793   -1.8757   -4.2429 H   0  0  0  0  0  0  0  0  0  0  0  0
    3.3051   -2.2608   -1.6601 H   0  0  0  0  0  0  0  0  0  0  0  0
    3.3237   -4.4925   -2.1479 H   0  0  0  0  0  0  0  0  0  0  0  0
    4.6240   -4.3660   -3.3724 H   0  0  0  0  0  0  0  0  0  0  0  0
    3.5997   -3.4796   -5.9669 H   0  0  0  0  0  0  0  0  0  0  0  0
   -0.4881   -3.9403   -4.8856 H   0  0  0  0  0  0  0  0  0  0  0  0
    1.1535   -3.5482   -6.8739 H   0  0  0  0  0  0  0  0  0  0  0  0
    4.8971   -3.4355   -0.0687 N   0  0  0  0  0  0  0  0  0  0  0  0
    5.8108   -4.1014    0.8211 C   0  0  1  0  0  0  0  0  0  0  0  0
    6.9083   -3.1895    1.2955 C   0  0  2  0  0  0  0  0  0  0  0  0
    6.5592   -1.9531    2.0103 C   0  0  2  0  0  0  0  0  0  0  0  0
    7.8551   -1.1854    2.3807 C   0  0  1  0  0  0  0  0  0  0  0  0
    7.3932    0.0255    3.1184 N   0  0  2  0  0  0  0  0  0  0  0  0
    5.0683   -4.7119    2.0218 C   0  0  0  0  0  0  0  0  0  0  0  0
    4.5921   -3.7246    2.8582 O   0  0  0  0  0  0  0  0  0  0  0  0
    3.9533   -3.2570    0.2285 H   0  0  0  0  0  0  0  0  0  0  0  0
    6.3457   -4.8552    0.1967 H   0  0  0  0  0  0  0  0  0  0  0  0
    7.5279   -2.8853    0.3859 H   0  0  0  0  0  0  0  0  0  0  0  0
    7.6566   -3.7502    1.9100 H   0  0  0  0  0  0  0  0  0  0  0  0
    5.8876   -1.9651    2.8488 H   0  0  0  0  0  0  0  0  0  0  0  0
    6.0802   -1.2394    1.2621 H   0  0  0  0  0  0  0  0  0  0  0  0
    8.5249   -1.7792    3.0007 H   0  0  0  0  0  0  0  0  0  0  0  0
    8.3612   -0.8500    1.4677 H   0  0  0  0  0  0  0  0  0  0  0  0
    8.0519    0.8294    2.9183 H   0  0  0  0  0  0  0  0  0  0  0  0
    7.4437   -0.2150    4.1702 H   0  0  0  0  0  0  0  0  0  0  0  0
    6.3935    0.2451    2.8621 H   0  0  0  0  0  0  0  0  0  0  0  0
    4.0331   -5.5622    1.5224 N   0  0  0  0  0  0  0  0  0  0  0  0
    2.8564   -5.9101    2.2514 C   0  0  2  0  0  0  0  0  0  0  0  0
    2.1138   -6.7224    1.1342 C   0  0  0  0  0  0  0  0  0  0  0  0
    2.1301   -5.8281   -0.0043 O   0  0  0  0  0  0  0  0  0  0  0  0
    2.0823   -4.7622    2.6872 C   0  0  2  0  0  0  0  0  0  0  0  0
    0.8372   -4.8998    3.4826 C   0  0  1  0  0  0  0  0  0  0  0  0
    0.3673   -3.4574    3.7384 C   0  0  1  0  0  0  0  0  0  0  0  0
    0.1106   -2.6819    2.4956 C   0  0  2  0  0  0  0  0  0  0  0  0
    4.4530   -6.4088    1.0452 H   0  0  0  0  0  0  0  0  0  0  0  0
    3.0880   -6.6489    3.0664 H   0  0  0  0  0  0  0  0  0  0  0  0
    1.9236   -4.1393    1.7463 H   0  0  0  0  0  0  0  0  0  0  0  0
    2.6746   -4.0853    3.3336 H   0  0  0  0  0  0  0  0  0  0  0  0
    0.0297   -5.4972    3.2246 H   0  0  0  0  0  0  0  0  0  0  0  0
    1.1751   -5.2329    4.5240 H   0  0  0  0  0  0  0  0  0  0  0  0
   -0.4949   -3.4121    4.4175 H   0  0  0  0  0  0  0  0  0  0  0  0
    1.2004   -2.9045    4.2814 H   0  0  0  0  0  0  0  0  0  0  0  0
   -0.7915   -2.0331    2.6911 H   0  0  0  0  0  0  0  0  0  0  0  0
   -0.1452   -3.2638    1.6169 H   0  0  0  0  0  0  0  0  0  0  0  0
    0.9009   -1.9039    2.2878 H   0  0  0  0  0  0  0  0  0  0  0  0
    0.7346   -6.9543    1.3572 N   0  0  0  0  0  0  0  0  0  0  0  0
   -0.1214   -6.1897    0.5035 C   0  0  2  0  0  0  0  0  0  0  0  0
   -1.5308   -6.0116    0.9842 C   0  0  0  0  0  0  0  0  0  0  0  0
   -2.1551   -6.7907    1.6907 O   0  0  0  0  0  0  0  0  0  0  0  0
   -0.1858   -6.9348   -0.8389 C   0  0  0  0  0  0  0  0  0  0  0  0
   -0.7044   -8.3088   -0.6853 C   0  0  0  0  0  0  0  0  0  0  0  0
    0.2005   -9.3707   -0.5452 C   0  0  0  0  0  0  0  0  0  0  0  0
   -2.0352   -8.6477   -0.6404 C   0  0  0  0  0  0  0  0  0  0  0  0
   -0.2169  -10.6693   -0.3726 C   0  0  0  0  0  0  0  0  0  0  0  0
   -2.4523   -9.9644   -0.4657 C   0  0  0  0  0  0  0  0  0  0  0  0
   -1.5536  -10.9775   -0.3311 C   0  0  0  0  0  0  0  0  0  0  0  0
   -1.9817  -12.3026   -0.1536 O   0  0  0  0  0  0  0  0  0  0  0  0
    0.4784   -7.9320    1.3800 H   0  0  0  0  0  0  0  0  0  0  0  0
    0.3057   -5.2039    0.3401 H   0  0  0  0  0  0  0  0  0  0  0  0
    0.8031   -7.0320   -1.2922 H   0  0  0  0  0  0  0  0  0  0  0  0
   -0.8152   -6.3308   -1.5353 H   0  0  0  0  0  0  0  0  0  0  0  0
    1.2637   -9.1751   -0.5712 H   0  0  0  0  0  0  0  0  0  0  0  0
   -2.7864   -7.8809   -0.7406 H   0  0  0  0  0  0  0  0  0  0  0  0
    0.4953  -11.4765   -0.2658 H   0  0  0  0  0  0  0  0  0  0  0  0
   -3.5041  -10.1817   -0.4314 H   0  0  0  0  0  0  0  0  0  0  0  0
   -2.9619  -12.5017   -0.1972 H   0  0  0  0  0  0  0  0  0  0  0  0
   -2.1968   -4.8161    0.5904 N   0  0  0  0  0  0  0  0  0  0  0  0
   -3.5252   -4.4008    0.9010 C   0  0  2  0  0  0  0  0  0  0  0  0
   -3.9566   -3.2097    0.0211 C   0  0  0  0  0  0  0  0  0  0  0  0
   -5.2414   -2.8532    0.3803 O   0  0  0  0  0  0  0  0  0  0  0  0
   -3.6727   -3.8417    2.3233 C   0  0  2  0  0  0  0  0  0  0  0  0
   -3.3373   -4.7348    3.4352 C   0  0  1  0  0  0  0  0  0  0  0  0
   -3.6238   -3.9185    4.6764 N   0  0  2  0  0  0  0  0  0  0  0  0
   -1.6231   -4.1877   -0.0030 H   0  0  0  0  0  0  0  0  0  0  0  0
   -4.2327   -5.1977    0.8346 H   0  0  0  0  0  0  0  0  0  0  0  0
   -4.7573   -3.5938    2.3881 H   0  0  0  0  0  0  0  0  0  0  0  0
   -3.1195   -2.8888    2.4340 H   0  0  0  0  0  0  0  0  0  0  0  0
   -3.8903   -5.6609    3.5483 H   0  0  0  0  0  0  0  0  0  0  0  0
   -2.2456   -4.9378    3.5558 H   0  0  0  0  0  0  0  0  0  0  0  0
   -3.1518   -4.3874    5.4944 H   0  0  0  0  0  0  0  0  0  0  0  0
   -4.6678   -3.8335    4.7837 H   0  0  0  0  0  0  0  0  0  0  0  0
   -3.1684   -2.9597    4.5026 H   0  0  0  0  0  0  0  0  0  0  0  0
   -3.0576   -2.1514    0.1998 N   0  0  0  0  0  0  0  0  0  0  0  0
   -3.3646   -0.8217    0.0070 C   0  0  2  0  0  0  0  0  0  0  0  0
   -3.8006   -0.1677   -1.1866 C   0  0  0  0  0  0  0  0  0  0  0  0
   -4.7670    0.6848   -1.0667 O   0  0  0  0  0  0  0  0  0  0  0  0
   -1.8587   -0.1325    0.1482 C   0  0  0  0  0  0  0  0  0  0  0  0
   -0.9436   -1.1501   -0.9347 S   0  0  0  0  0  0  0  0  0  0  0  0
   -2.1363   -2.3709    0.6434 H   0  0  0  0  0  0  0  0  0  0  0  0
   -3.8310   -0.3360    0.9079 H   0  0  0  0  0  0  0  0  0  0  0  0
   -2.0571    0.8451   -0.2201 H   0  0  0  0  0  0  0  0  0  0  0  0
   -1.6292   -0.1374    1.2038 H   0  0  0  0  0  0  0  0  0  0  0  0
   -3.3593   -0.2646   -2.5232 N   0  0  0  0  0  0  0  0  0  0  0  0
   -3.8426    0.4967   -3.6471 C   0  0  2  0  0  0  0  0  0  0  0  0
   -3.6553    1.9625   -3.6047 C   0  0  0  0  0  0  0  0  0  0  0  0
   -3.8668    2.6197   -4.6458 O   0  0  0  0  0  0  0  0  0  0  0  0
   -5.3005    0.1422   -3.9305 C   0  0  2  0  0  0  0  0  0  0  0  0
   -5.3332   -1.3383   -4.2340 C   0  0  0  0  0  0  0  0  0  0  0  0
   -5.7082    0.8212   -5.2145 C   0  0  0  0  0  0  0  0  0  0  0  0
   -4.4854   -1.6970   -5.4404 C   0  0  0  0  0  0  0  0  0  0  0  0
   -2.6270   -0.9644   -2.6987 H   0  0  0  0  0  0  0  0  0  0  0  0
   -3.3160    0.1667   -4.5728 H   0  0  0  0  0  0  0  0  0  0  0  0
   -5.9938    0.4409   -3.1499 H   0  0  0  0  0  0  0  0  0  0  0  0
   -6.3912   -1.6147   -4.4992 H   0  0  0  0  0  0  0  0  0  0  0  0
   -4.9664   -1.9599   -3.3933 H   0  0  0  0  0  0  0  0  0  0  0  0
   -6.3582    1.7216   -5.0238 H   0  0  0  0  0  0  0  0  0  0  0  0
   -6.4168    0.1577   -5.8041 H   0  0  0  0  0  0  0  0  0  0  0  0
   -4.8950    1.0192   -5.9177 H   0  0  0  0  0  0  0  0  0  0  0  0
   -4.5788   -0.9522   -6.2601 H   0  0  0  0  0  0  0  0  0  0  0  0
   -4.7748   -2.6892   -5.8573 H   0  0  0  0  0  0  0  0  0  0  0  0
   -3.3982   -1.7632   -5.2045 H   0  0  0  0  0  0  0  0  0  0  0  0
   -3.2612    2.7425   -2.4992 N   0  0  0  0  0  0  0  0  0  0  0  0
   -3.1436    4.2369   -2.5593 C   0  0  2  0  0  0  0  0  0  0  0  0
   -2.5246    4.7458   -1.3509 C   0  0  0  0  0  0  0  0  0  0  0  0
   -2.6760    5.8992   -0.9070 O   0  0  0  0  0  0  0  0  0  0  0  0
   -4.5223    4.7956   -2.7391 C   0  0  0  0  0  0  0  0  0  0  0  0
   -4.6544    6.2701   -2.8805 C   0  0  0  0  0  0  0  0  0  0  0  0
   -3.9561    6.9053   -4.0403 C   0  0  0  0  0  0  0  0  0  0  0  0
   -2.5414    6.8795   -4.0811 N   0  0  0  0  0  0  0  0  0  0  0  0
   -1.9073    7.4322   -5.2672 C   0  0  0  0  0  0  0  0  0  0  0  0
   -0.4688    7.4266   -5.3582 N   0  0  0  0  0  0  0  0  0  0  0  0
   -2.6300    7.9235   -6.2371 N   0  0  0  0  0  0  0  0  0  0  0  0
   -3.0262    2.3247   -1.6390 H   0  0  0  0  0  0  0  0  0  0  0  0
   -2.6042    4.4527   -3.4637 H   0  0  0  0  0  0  0  0  0  0  0  0
   -5.1200    4.4775   -1.8368 H   0  0  0  0  0  0  0  0  0  0  0  0
   -4.9985    4.3474   -3.6525 H   0  0  0  0  0  0  0  0  0  0  0  0
   -5.7762    6.5199   -2.9433 H   0  0  0  0  0  0  0  0  0  0  0  0
   -4.3349    6.8479   -1.9728 H   0  0  0  0  0  0  0  0  0  0  0  0
   -4.3684    6.3919   -4.9632 H   0  0  0  0  0  0  0  0  0  0  0  0
   -4.2988    7.9767   -4.0704 H   0  0  0  0  0  0  0  0  0  0  0  0
   -1.8641    6.5481   -3.3754 H   0  0  0  0  0  0  0  0  0  0  0  0
    0.0375    6.9349   -6.1323 H   0  0  0  0  0  0  0  0  0  0  0  0
    0.1247    7.9232   -4.6450 H   0  0  0  0  0  0  0  0  0  0  0  0
   -3.6597    7.8956   -6.1077 H   0  0  0  0  0  0  0  0  0  0  0  0
   -2.1336    8.3056   -7.0652 H   0  0  0  0  0  0  0  0  0  0  0  0
   -1.6296    3.9592   -0.5036 N   0  0  0  0  0  0  0  0  0  0  0  0
   -1.1658    4.4112    0.7611 C   0  0  2  0  0  0  0  0  0  0  0  0
   -0.4149    5.7522    0.5907 C   0  0  0  0  0  0  0  0  0  0  0  0
   -0.1918    6.2249   -0.5340 O   0  0  0  0  0  0  0  0  0  0  0  0
   -0.0998    3.5372    1.3444 C   0  0  0  0  0  0  0  0  0  0  0  0
    1.4889    3.8694    0.7018 S   0  0  0  0  0  0  0  0  0  0  0  0
   -1.3870    3.0672   -0.8810 H   0  0  0  0  0  0  0  0  0  0  0  0
   -1.9444    4.7232    1.4667 H   0  0  0  0  0  0  0  0  0  0  0  0
   -0.4379    2.4610    1.2250 H   0  0  0  0  0  0  0  0  0  0  0  0
   -0.0583    3.6432    2.4772 H   0  0  0  0  0  0  0  0  0  0  0  0
   -0.0304    6.3535    1.8251 N   0  0  0  0  0  0  0  0  0  0  0  0
    0.6845    7.6380    1.8375 C   0  0  2  0  0  0  0  0  0  0  0  0
    2.0412    7.3430    2.3661 C   0  0  0  0  0  0  0  0  0  0  0  0
    2.3349    6.2131    2.8473 O   0  0  0  0  0  0  0  0  0  0  0  0
   -0.0003    8.5792    2.8337 C   0  0  0  0  0  0  0  0  0  0  0  0
   -0.0161    8.0225    4.2080 C   0  0  0  0  0  0  0  0  0  0  0  0
    0.9999    8.2134    5.1106 C   0  0  0  0  0  0  0  0  0  0  0  0
   -1.0942    7.2512    4.6730 C   0  0  0  0  0  0  0  0  0  0  0  0
    1.0348    7.7190    6.3880 C   0  0  0  0  0  0  0  0  0  0  0  0
   -1.1005    6.7296    5.9630 C   0  0  0  0  0  0  0  0  0  0  0  0
   -0.0484    6.9554    6.8234 C   0  0  0  0  0  0  0  0  0  0  0  0
   -0.0793    6.4171    8.1216 O   0  0  0  0  0  0  0  0  0  0  0  0
   -0.2347    5.9201    2.7487 H   0  0  0  0  0  0  0  0  0  0  0  0
    0.7745    8.0731    0.8424 H   0  0  0  0  0  0  0  0  0  0  0  0
    0.5604    9.5496    2.7848 H   0  0  0  0  0  0  0  0  0  0  0  0
   -1.0477    8.7960    2.5034 H   0  0  0  0  0  0  0  0  0  0  0  0
    1.8383    8.8077    4.7867 H   0  0  0  0  0  0  0  0  0  0  0  0
   -1.9239    7.0625    4.0290 H   0  0  0  0  0  0  0  0  0  0  0  0
    1.8692    7.8987    7.0726 H   0  0  0  0  0  0  0  0  0  0  0  0
   -1.9499    6.1284    6.3114 H   0  0  0  0  0  0  0  0  0  0  0  0
    0.7893    6.3141    8.6683 H   0  0  0  0  0  0  0  0  0  0  0  0
    3.0809    8.3102    2.3532 N   0  0  0  0  0  0  0  0  0  0  0  0
    4.3806    7.9413    2.8729 C   0  0  2  0  0  0  0  0  0  0  0  0
    4.9286    8.8851    3.8589 C   0  0  0  0  0  0  0  0  0  0  0  0
    4.2765    9.9127    4.2060 O   0  0  0  0  0  0  0  0  0  0  0  0
    5.3864    7.8342    1.7097 C   0  0  0  0  0  0  0  0  0  0  0  0
    2.9435    9.2537    1.9864 H   0  0  0  0  0  0  0  0  0  0  0  0
    4.3496    6.9213    3.3631 H   0  0  0  0  0  0  0  0  0  0  0  0
    6.1463    7.0817    1.9889 H   0  0  0  0  0  0  0  0  0  0  0  0
    5.8838    8.8131    1.6350 H   0  0  0  0  0  0  0  0  0  0  0  0
    4.8510    7.5693    0.7731 H   0  0  0  0  0  0  0  0  0  0  0  0
    6.2041    8.6276    4.4184 N   0  0  0  0  0  0  0  0  0  0  0  0
    7.0163    8.2420    3.8667 H   0  0  0  0  0  0  0  0  0  0  0  0
    6.3486    8.8269    5.4274 H   0  0  0  0  0  0  0  0  0  0  0  0
    0.3931    1.6505   -0.8586 H   0  0  0  0  0  0  0  0  0  0  0  0
    0.1334    0.3035   -3.0210 H   0  0  0  0  0  0  0  0  0  0  0  0
    1.9482    0.3372   -4.2707 H   0  0  0  0  0  0  0  0  0  0  0  0
    3.5853    1.4883   -3.4137 H   0  0  0  0  0  0  0  0  0  0  0  0
    3.3873    0.2437   -0.6331 H   0  0  0  0  0  0  0  0  0  0  0  0
    2.7582    2.8476   -2.0918 H   0  0  0  0  0  0  0  0  0  0  0  0
    5.2044    0.0757   -4.0284 H   0  0  0  0  0  0  0  0  0  0  0  0
    6.5171    0.1499   -2.3566 H   0  0  0  0  0  0  0  0  0  0  0  0
    5.8103   -5.2936    2.5615 H   0  0  0  0  0  0  0  0  0  0  0  0
    4.9242   -3.8429    3.7988 H   0  0  0  0  0  0  0  0  0  0  0  0
    2.6963   -7.5835    0.9169 H   0  0  0  0  0  0  0  0  0  0  0  0
    2.8906   -6.1412   -0.5646 H   0  0  0  0  0  0  0  0  0  0  0  0
   -3.9772   -3.5080   -1.0463 H   0  0  0  0  0  0  0  0  0  0  0  0
   -5.9317   -3.4391    0.0221 H   0  0  0  0  0  0  0  0  0  0  0  0
  1  2  1  0
  1 11  1  1
  1 12  1  0
  1 13  1  0
  2  3  1  0
  2  7  1  0
  3  4  1  0
  3 10  1  0
  4  5  1  0
  4 14  1  0
  5  6  1  0
  5  9  1  0
  6  7  1  0
  6 15  1  0
  7  8  1  0
  8 16  1  6
  8 17  1  0
  8171  1  0
  9 19  1  0
  9 21  1  0
 10 18  1  6
 10 20  1  0
 10118  1  0
 23 38  1  0
 38 39  1  0
 38 46  1  0
 39 40  1  0
 39 44  1  0
 39 47  1  6
 40 41  1  0
 40 48  1  6
 40 49  1  0
 41 42  1  0
 41 50  1  1
 41 51  1  0
 42 43  1  0
 42 52  1  1
 42 53  1  0
 43 54  1  1
 43 55  1  0
 44 45  1  0
 44 57  1  0
 57 58  1  0
 57 65  1  0
 58 59  1  0
 58 61  1  0
 58 66  1  1
 59 60  1  0
 59 76  1  0
 61 62  1  0
 61 67  1  6
 61 68  1  0
 62 63  1  0
 62 69  1  6
 62 70  1  0
 63 64  1  0
 63 71  1  1
 63 72  1  0
 64 73  1  1
 64 74  1  0
 64 75  1  0
 78 97  1  0
 97 98  1  0
 97104  1  0
 98 99  1  0
 98101  1  0
 98105  1  1
 99100  1  0
 99113  1  0
101102  1  0
101106  1  1
101107  1  0
102103  1  0
102108  1  1
102109  1  0
103110  1  1
103111  1  0
199207  1  0
207208  1  0
207209  1  0
 22 21  1  0
 23 22  1  0
 24 23  2  0
 25 22  1  0
 26 25  1  0
 27 26  1  0
 28 26  2  0
 29 27  2  0
 30 28  1  0
 30 29  1  0
 31 21  1  0
 22 32  1  1
 33 25  1  0
 34 25  1  0
 35 28  1  0
 36 29  1  0
 37 30  1  0
 56 43  1  0
 77 76  1  0
 78 77  1  0
 79 78  2  0
 80 77  1  0
 81 80  1  0
 82 81  2  0
 83 81  1  0
 84 82  1  0
 85 83  2  0
 86 85  1  0
 86 84  2  0
 87 86  1  0
 88 76  1  0
 77 89  1  6
 90 80  1  0
 91 80  1  0
 92 82  1  0
 93 83  1  0
 94 84  1  0
 95 85  1  0
 96 87  1  0
112103  1  0
114113  1  0
115114  1  0
116115  2  0
117114  1  0
118117  1  0
119113  1  0
114120  1  1
121117  1  0
122117  1  0
123115  1  0
124123  1  0
125124  1  0
126125  2  0
127124  1  0
128127  1  0
129127  1  0
130128  1  0
131123  1  0
124132  1  6
127133  1  1
134128  1  0
135128  1  0
136129  1  0
137129  1  0
138129  1  0
139130  1  0
140130  1  0
141130  1  0
142125  1  0
143142  1  0
144143  1  0
145144  2  0
146143  1  0
147146  1  0
148147  1  0
149148  1  0
150149  1  0
151150  1  0
152150  2  0
153142  1  0
143154  1  6
155146  1  0
156146  1  0
157147  1  0
158147  1  0
159148  1  0
160148  1  0
161149  1  0
162151  1  0
163151  1  0
164152  1  0
165152  1  0
166144  1  0
167166  1  0
168167  1  0
169168  2  0
170167  1  0
171170  1  0
172166  1  0
167173  1  1
174170  1  0
175170  1  0
176168  1  0
177176  1  0
178177  1  0
179178  2  0
180177  1  0
181180  1  0
182181  2  0
183181  1  0
184182  1  0
185183  2  0
186185  1  0
186184  2  0
187186  1  0
188176  1  0
177189  1  6
190180  1  0
191180  1  0
192182  1  0
193183  1  0
194184  1  0
195185  1  0
196187  1  0
197178  1  0
198197  1  0
199198  1  0
200199  2  0
201198  1  0
202197  1  0
198203  1  1
204201  1  0
205201  1  0
206201  1  0
  2210  1  1
  3211  1  6
  4212  1  0
  5213  1  0
  6214  1  0
  7215  1  0
  9216  1  0
 19217  1  0
 44218  1  0
 45219  1  0
 59220  1  0
 60221  1  0
 99222  1  0
100223  1  0
M  CHG  3  43   1 103   1 152   1
M  END
$$$$
BP70
     RDKit          3D

223228  0  0  0  0  0  0  0  0999 V2000
   -2.6638    3.2993   -4.9689 C   0  0  2  0  0  0  0  0  0  0  0  0
   -1.9999    2.4933   -3.8352 C   0  0  1  0  0  0  0  0  0  0  0  0
   -2.9819    1.8691   -2.9411 C   0  0  1  0  0  0  0  0  0  0  0  0
   -2.9752    0.3754   -2.8843 C   0  0  0  0  0  0  0  0  0  0  0  0
   -1.6129   -0.2338   -3.0079 C   0  0  0  0  0  0  0  0  0  0  0  0
   -0.7277    0.2869   -4.0500 C   0  0  0  0  0  0  0  0  0  0  0  0
   -0.9080    1.6950   -4.4278 C   0  0  0  0  0  0  0  0  0  0  0  0
   -0.8231    1.8161   -5.9572 C   0  0  2  0  0  0  0  0  0  0  0  0
   -0.9007   -0.2261   -1.6719 C   0  0  0  0  0  0  0  0  0  0  0  0
   -3.0626    2.4787   -1.5625 C   0  0  1  0  0  0  0  0  0  0  0  0
   -2.9790    2.6786   -5.8047 H   0  0  0  0  0  0  0  0  0  0  0  0
   -2.0685    4.1829   -5.1908 H   0  0  0  0  0  0  0  0  0  0  0  0
   -3.6245    3.6936   -4.5163 H   0  0  0  0  0  0  0  0  0  0  0  0
   -3.3837    0.0766   -1.8963 H   0  0  0  0  0  0  0  0  0  0  0  0
    0.3436   -0.0148   -3.8979 H   0  0  0  0  0  0  0  0  0  0  0  0
   -1.0053    2.8842   -6.2782 H   0  0  0  0  0  0  0  0  0  0  0  0
   -1.6919    1.2719   -6.4212 H   0  0  0  0  0  0  0  0  0  0  0  0
   -4.1588    2.5361   -1.2277 H   0  0  0  0  0  0  0  0  0  0  0  0
   -0.2389    1.0367   -1.6555 O   0  0  0  0  0  0  0  0  0  0  0  0
   -2.6056    1.8348   -0.8210 H   0  0  0  0  0  0  0  0  0  0  0  0
    0.1786   -1.1844   -1.5596 N   0  0  0  0  0  0  0  0  0  0  0  0
    0.2400   -1.7630   -0.2387 C   0  0  2  0  0  0  0  0  0  0  0  0
   -0.9541   -2.6137    0.0175 C   0  0  0  0  0  0  0  0  0  0  0  0
   -1.7786   -2.7753   -0.8956 O   0  0  0  0  0  0  0  0  0  0  0  0
    0.5622   -0.9030    0.9014 C   0  0  0  0  0  0  0  0  0  0  0  0
    1.8695   -0.2220    0.9093 C   0  0  0  0  0  0  0  0  0  0  0  0
    2.9914   -0.7939    1.4210 N   0  0  0  0  0  0  0  0  0  0  0  0
    2.2582    1.0292    0.5106 C   0  0  0  0  0  0  0  0  0  0  0  0
    4.0390    0.0417    1.3539 C   0  0  0  0  0  0  0  0  0  0  0  0
    3.5730    1.1797    0.7843 N   0  0  0  0  0  0  0  0  0  0  0  0
    1.1028   -0.7620   -1.7697 H   0  0  0  0  0  0  0  0  0  0  0  0
    1.0848   -2.5244   -0.3194 H   0  0  0  0  0  0  0  0  0  0  0  0
    0.5375   -1.5322    1.8460 H   0  0  0  0  0  0  0  0  0  0  0  0
   -0.2575   -0.1483    1.1356 H   0  0  0  0  0  0  0  0  0  0  0  0
    1.6618    1.8010    0.0556 H   0  0  0  0  0  0  0  0  0  0  0  0
    5.0684   -0.1141    1.6772 H   0  0  0  0  0  0  0  0  0  0  0  0
    4.1833    1.9953    0.6232 H   0  0  0  0  0  0  0  0  0  0  0  0
   -1.2488   -3.2709    1.2350 N   0  0  0  0  0  0  0  0  0  0  0  0
   -2.3663   -4.1462    1.3443 C   0  0  1  0  0  0  0  0  0  0  0  0
   -1.7800   -5.5706    1.4522 C   0  0  2  0  0  0  0  0  0  0  0  0
   -0.9982   -5.8446    0.2086 C   0  0  2  0  0  0  0  0  0  0  0  0
   -0.3705   -7.2063    0.1760 C   0  0  1  0  0  0  0  0  0  0  0  0
    0.3680   -7.3940   -1.0880 N   0  0  2  0  0  0  0  0  0  0  0  0
   -3.3837   -3.9033    2.4089 C   0  0  0  0  0  0  0  0  0  0  0  0
   -2.7460   -3.8924    3.6263 O   0  0  0  0  0  0  0  0  0  0  0  0
   -0.6318   -3.0873    2.0170 H   0  0  0  0  0  0  0  0  0  0  0  0
   -2.9298   -4.2029    0.3546 H   0  0  0  0  0  0  0  0  0  0  0  0
   -2.5628   -6.3156    1.5828 H   0  0  0  0  0  0  0  0  0  0  0  0
   -1.0546   -5.5864    2.3144 H   0  0  0  0  0  0  0  0  0  0  0  0
   -0.1483   -5.1166    0.0879 H   0  0  0  0  0  0  0  0  0  0  0  0
   -1.7031   -5.7910   -0.6685 H   0  0  0  0  0  0  0  0  0  0  0  0
    0.3709   -7.3007    1.0260 H   0  0  0  0  0  0  0  0  0  0  0  0
   -1.1680   -7.9790    0.2463 H   0  0  0  0  0  0  0  0  0  0  0  0
    1.3781   -7.1042   -0.9768 H   0  0  0  0  0  0  0  0  0  0  0  0
   -0.1146   -6.8228   -1.8562 H   0  0  0  0  0  0  0  0  0  0  0  0
    0.3120   -8.4370   -1.3604 H   0  0  0  0  0  0  0  0  0  0  0  0
   -4.2343   -2.7954    2.1108 N   0  0  0  0  0  0  0  0  0  0  0  0
   -5.5131   -2.9006    2.7809 C   0  0  2  0  0  0  0  0  0  0  0  0
   -5.4977   -2.7417    4.2683 C   0  0  0  0  0  0  0  0  0  0  0  0
   -6.9174   -3.1015    4.5876 O   0  0  0  0  0  0  0  0  0  0  0  0
   -6.2675   -4.1814    2.4100 C   0  0  2  0  0  0  0  0  0  0  0  0
   -6.5116   -4.2233    0.9366 C   0  0  1  0  0  0  0  0  0  0  0  0
   -7.2678   -5.5032    0.5465 C   0  0  1  0  0  0  0  0  0  0  0  0
   -7.4894   -5.4990   -0.9460 C   0  0  2  0  0  0  0  0  0  0  0  0
   -4.4147   -2.7753    1.0953 H   0  0  0  0  0  0  0  0  0  0  0  0
   -6.1704   -2.0957    2.3621 H   0  0  0  0  0  0  0  0  0  0  0  0
   -7.2921   -4.0041    2.8799 H   0  0  0  0  0  0  0  0  0  0  0  0
   -5.9086   -5.0809    2.8775 H   0  0  0  0  0  0  0  0  0  0  0  0
   -7.1484   -3.3781    0.5992 H   0  0  0  0  0  0  0  0  0  0  0  0
   -5.5989   -4.2467    0.3094 H   0  0  0  0  0  0  0  0  0  0  0  0
   -6.6323   -6.3718    0.8050 H   0  0  0  0  0  0  0  0  0  0  0  0
   -8.2477   -5.5450    1.0694 H   0  0  0  0  0  0  0  0  0  0  0  0
   -8.2049   -6.2982   -1.2262 H   0  0  0  0  0  0  0  0  0  0  0  0
   -6.5344   -5.6182   -1.4908 H   0  0  0  0  0  0  0  0  0  0  0  0
   -7.8951   -4.4996   -1.2274 H   0  0  0  0  0  0  0  0  0  0  0  0
   -5.3893   -1.5021    4.7937 N   0  0  0  0  0  0  0  0  0  0  0  0
   -4.6118   -0.4132    4.8259 C   0  0  2  0  0  0  0  0  0  0  0  0
   -4.5677    0.4721    3.6493 C   0  0  0  0  0  0  0  0  0  0  0  0
   -4.8998    0.2307    2.4952 O   0  0  0  0  0  0  0  0  0  0  0  0
   -3.1538   -0.6414    5.2826 C   0  0  0  0  0  0  0  0  0  0  0  0
   -3.1102   -1.1614    6.6656 C   0  0  0  0  0  0  0  0  0  0  0  0
   -3.1292   -2.4928    7.0050 C   0  0  0  0  0  0  0  0  0  0  0  0
   -3.0533   -0.2449    7.7062 C   0  0  0  0  0  0  0  0  0  0  0  0
   -3.0913   -2.8645    8.3402 C   0  0  0  0  0  0  0  0  0  0  0  0
   -3.0166   -0.6013    9.0316 C   0  0  0  0  0  0  0  0  0  0  0  0
   -3.0359   -1.9394    9.3418 C   0  0  0  0  0  0  0  0  0  0  0  0
   -2.9993   -2.2820   10.6899 O   0  0  0  0  0  0  0  0  0  0  0  0
   -6.1265   -1.3980    5.6213 H   0  0  0  0  0  0  0  0  0  0  0  0
   -4.9676    0.3019    5.6793 H   0  0  0  0  0  0  0  0  0  0  0  0
   -2.6861    0.3626    5.2836 H   0  0  0  0  0  0  0  0  0  0  0  0
   -2.5983   -1.2628    4.5808 H   0  0  0  0  0  0  0  0  0  0  0  0
   -3.1682   -3.2418    6.2553 H   0  0  0  0  0  0  0  0  0  0  0  0
   -3.0325    0.8201    7.4806 H   0  0  0  0  0  0  0  0  0  0  0  0
   -3.1098   -3.9314    8.6053 H   0  0  0  0  0  0  0  0  0  0  0  0
   -2.9724    0.1881    9.7891 H   0  0  0  0  0  0  0  0  0  0  0  0
   -2.1389   -2.6394   11.1301 H   0  0  0  0  0  0  0  0  0  0  0  0
   -4.0826    1.8035    3.8798 N   0  0  0  0  0  0  0  0  0  0  0  0
   -3.9307    2.8715    2.9143 C   0  0  2  0  0  0  0  0  0  0  0  0
   -2.6809    3.6232    3.2461 C   0  0  0  0  0  0  0  0  0  0  0  0
   -2.8045    4.1417    4.5797 O   0  0  0  0  0  0  0  0  0  0  0  0
   -5.1552    3.7650    3.1494 C   0  0  2  0  0  0  0  0  0  0  0  0
   -6.4641    3.1057    2.9505 C   0  0  1  0  0  0  0  0  0  0  0  0
   -6.6855    2.6071    1.5871 N   0  0  2  0  0  0  0  0  0  0  0  0
   -3.8130    2.0086    4.8462 H   0  0  0  0  0  0  0  0  0  0  0  0
   -3.9391    2.5711    1.8685 H   0  0  0  0  0  0  0  0  0  0  0  0
   -5.0955    4.6629    2.5108 H   0  0  0  0  0  0  0  0  0  0  0  0
   -5.1661    4.1746    4.1956 H   0  0  0  0  0  0  0  0  0  0  0  0
   -6.6594    2.2645    3.6471 H   0  0  0  0  0  0  0  0  0  0  0  0
   -7.3328    3.8052    3.1435 H   0  0  0  0  0  0  0  0  0  0  0  0
   -7.2196    1.6698    1.6492 H   0  0  0  0  0  0  0  0  0  0  0  0
   -5.7750    2.4581    1.0716 H   0  0  0  0  0  0  0  0  0  0  0  0
   -7.3089    3.2990    1.0423 H   0  0  0  0  0  0  0  0  0  0  0  0
   -2.1602    4.6249    2.4634 N   0  0  0  0  0  0  0  0  0  0  0  0
   -1.6191    4.2925    1.1401 C   0  0  2  0  0  0  0  0  0  0  0  0
   -0.4583    5.2497    0.9359 C   0  0  0  0  0  0  0  0  0  0  0  0
   -0.5782    6.3556    1.4719 O   0  0  0  0  0  0  0  0  0  0  0  0
   -2.7153    4.8280    0.1863 C   0  0  0  0  0  0  0  0  0  0  0  0
   -2.5200    4.2056   -1.4831 S   0  0  0  0  0  0  0  0  0  0  0  0
   -2.3894    5.6059    2.5965 H   0  0  0  0  0  0  0  0  0  0  0  0
   -1.4723    3.2846    1.0131 H   0  0  0  0  0  0  0  0  0  0  0  0
   -3.7046    4.5556    0.6049 H   0  0  0  0  0  0  0  0  0  0  0  0
   -2.6919    5.9489    0.2113 H   0  0  0  0  0  0  0  0  0  0  0  0
    0.7247    4.9945    0.2215 N   0  0  0  0  0  0  0  0  0  0  0  0
    1.6797    6.0777    0.0984 C   0  0  2  0  0  0  0  0  0  0  0  0
    2.7081    5.8886   -0.9291 C   0  0  0  0  0  0  0  0  0  0  0  0
    3.3550    6.8458   -1.3876 O   0  0  0  0  0  0  0  0  0  0  0  0
    2.3619    6.3066    1.4725 C   0  0  2  0  0  0  0  0  0  0  0  0
    3.3672    7.4084    1.3945 C   0  0  0  0  0  0  0  0  0  0  0  0
    2.9862    5.0817    2.0264 C   0  0  0  0  0  0  0  0  0  0  0  0
    2.8200    8.7475    0.9860 C   0  0  0  0  0  0  0  0  0  0  0  0
    0.8204    4.0521   -0.1592 H   0  0  0  0  0  0  0  0  0  0  0  0
    1.1254    7.0072   -0.0420 H   0  0  0  0  0  0  0  0  0  0  0  0
    1.5719    6.6762    2.1509 H   0  0  0  0  0  0  0  0  0  0  0  0
    4.2890    7.1308    0.8377 H   0  0  0  0  0  0  0  0  0  0  0  0
    3.7387    7.5334    2.4515 H   0  0  0  0  0  0  0  0  0  0  0  0
    4.0994    5.1741    2.1698 H   0  0  0  0  0  0  0  0  0  0  0  0
    2.8546    4.1633    1.4435 H   0  0  0  0  0  0  0  0  0  0  0  0
    2.6081    4.8224    3.0586 H   0  0  0  0  0  0  0  0  0  0  0  0
    1.7517    8.7659    0.7507 H   0  0  0  0  0  0  0  0  0  0  0  0
    2.9361    9.5336    1.7931 H   0  0  0  0  0  0  0  0  0  0  0  0
    3.4692    9.1823    0.1624 H   0  0  0  0  0  0  0  0  0  0  0  0
    3.0508    4.6216   -1.4593 N   0  0  0  0  0  0  0  0  0  0  0  0
    4.0380    4.4218   -2.5607 C   0  0  2  0  0  0  0  0  0  0  0  0
    3.3660    3.3904   -3.3838 C   0  0  0  0  0  0  0  0  0  0  0  0
    2.2677    2.9908   -2.8710 O   0  0  0  0  0  0  0  0  0  0  0  0
    5.2009    3.6783   -1.8782 C   0  0  0  0  0  0  0  0  0  0  0  0
    5.7892    4.4489   -0.7471 C   0  0  0  0  0  0  0  0  0  0  0  0
    6.9127    3.6445   -0.1374 C   0  0  0  0  0  0  0  0  0  0  0  0
    7.5063    4.3629    0.9808 N   0  0  0  0  0  0  0  0  0  0  0  0
    8.5947    3.7792    1.7205 C   0  0  0  0  0  0  0  0  0  0  0  0
    9.2033    4.4406    2.8217 N   0  0  0  0  0  0  0  0  0  0  0  0
    9.0427    2.6002    1.3788 N   0  0  0  0  0  0  0  0  0  0  0  0
    2.5886    3.8165   -1.0418 H   0  0  0  0  0  0  0  0  0  0  0  0
    4.3262    5.3328   -3.0365 H   0  0  0  0  0  0  0  0  0  0  0  0
    4.7913    2.7199   -1.5257 H   0  0  0  0  0  0  0  0  0  0  0  0
    5.9669    3.4103   -2.6370 H   0  0  0  0  0  0  0  0  0  0  0  0
    4.9981    4.5218    0.0396 H   0  0  0  0  0  0  0  0  0  0  0  0
    6.1301    5.4600   -1.0444 H   0  0  0  0  0  0  0  0  0  0  0  0
    6.4896    2.6710    0.2018 H   0  0  0  0  0  0  0  0  0  0  0  0
    7.6843    3.3799   -0.8979 H   0  0  0  0  0  0  0  0  0  0  0  0
    7.1439    5.3091    1.2574 H   0  0  0  0  0  0  0  0  0  0  0  0
    8.6826    4.8592    3.6147 H   0  0  0  0  0  0  0  0  0  0  0  0
   10.2428    4.5013    2.8133 H   0  0  0  0  0  0  0  0  0  0  0  0
    9.8367    2.1613    1.9119 H   0  0  0  0  0  0  0  0  0  0  0  0
    8.6648    2.0479    0.5977 H   0  0  0  0  0  0  0  0  0  0  0  0
    3.7134    2.7922   -4.5969 N   0  0  0  0  0  0  0  0  0  0  0  0
    2.7398    1.7656   -5.0741 C   0  0  2  0  0  0  0  0  0  0  0  0
    3.6329    0.5291   -5.1615 C   0  0  0  0  0  0  0  0  0  0  0  0
    4.8803    0.6615   -5.0662 O   0  0  0  0  0  0  0  0  0  0  0  0
    2.1759    2.1187   -6.3883 C   0  0  0  0  0  0  0  0  0  0  0  0
    0.6537    1.2415   -6.7319 S   0  0  0  0  0  0  0  0  0  0  0  0
    4.5484    3.0621   -5.0703 H   0  0  0  0  0  0  0  0  0  0  0  0
    2.0404    1.5123   -4.3003 H   0  0  0  0  0  0  0  0  0  0  0  0
    2.9299    1.9434   -7.2206 H   0  0  0  0  0  0  0  0  0  0  0  0
    1.9514    3.2077   -6.5073 H   0  0  0  0  0  0  0  0  0  0  0  0
    3.0564   -0.7667   -5.3427 N   0  0  0  0  0  0  0  0  0  0  0  0
    3.8883   -1.9545   -5.4312 C   0  0  2  0  0  0  0  0  0  0  0  0
    3.3064   -2.9892   -6.2748 C   0  0  0  0  0  0  0  0  0  0  0  0
    4.0411   -3.9926   -6.5837 O   0  0  0  0  0  0  0  0  0  0  0  0
    4.2413   -2.4723   -4.0497 C   0  0  0  0  0  0  0  0  0  0  0  0
    5.0651   -3.6799   -4.1825 C   0  0  0  0  0  0  0  0  0  0  0  0
    6.4512   -3.6566   -4.3261 C   0  0  0  0  0  0  0  0  0  0  0  0
    4.4429   -4.9374   -4.1415 C   0  0  0  0  0  0  0  0  0  0  0  0
    7.1907   -4.8322   -4.4241 C   0  0  0  0  0  0  0  0  0  0  0  0
    5.1748   -6.1069   -4.2396 C   0  0  0  0  0  0  0  0  0  0  0  0
    6.5384   -6.0556   -4.3796 C   0  0  0  0  0  0  0  0  0  0  0  0
    7.3223   -7.1965   -4.4816 O   0  0  0  0  0  0  0  0  0  0  0  0
    2.0137   -0.7889   -5.4039 H   0  0  0  0  0  0  0  0  0  0  0  0
    4.8663   -1.6331   -5.8228 H   0  0  0  0  0  0  0  0  0  0  0  0
    4.8778   -1.6867   -3.5730 H   0  0  0  0  0  0  0  0  0  0  0  0
    3.3683   -2.7431   -3.4297 H   0  0  0  0  0  0  0  0  0  0  0  0
    6.9719   -2.7224   -4.3626 H   0  0  0  0  0  0  0  0  0  0  0  0
    3.3485   -5.0037   -4.0310 H   0  0  0  0  0  0  0  0  0  0  0  0
    8.2751   -4.8189   -4.5325 H   0  0  0  0  0  0  0  0  0  0  0  0
    4.6464   -7.0466   -4.2001 H   0  0  0  0  0  0  0  0  0  0  0  0
    7.2385   -7.8661   -5.2549 H   0  0  0  0  0  0  0  0  0  0  0  0
    1.9974   -3.0220   -6.8001 N   0  0  0  0  0  0  0  0  0  0  0  0
    1.5187   -4.1141   -7.6196 C   0  0  2  0  0  0  0  0  0  0  0  0
    0.9577   -3.6782   -8.9157 C   0  0  0  0  0  0  0  0  0  0  0  0
    0.4944   -4.4430   -9.7860 O   0  0  0  0  0  0  0  0  0  0  0  0
    0.5387   -4.9853   -6.8513 C   0  0  0  0  0  0  0  0  0  0  0  0
    1.3557   -2.2404   -6.6004 H   0  0  0  0  0  0  0  0  0  0  0  0
    2.3827   -4.7751   -7.8269 H   0  0  0  0  0  0  0  0  0  0  0  0
    1.0339   -5.6173   -6.0911 H   0  0  0  0  0  0  0  0  0  0  0  0
   -0.1241   -4.2956   -6.2853 H   0  0  0  0  0  0  0  0  0  0  0  0
   -0.1066   -5.5193   -7.5641 H   0  0  0  0  0  0  0  0  0  0  0  0
    0.9426   -2.2722   -9.1997 N   0  0  0  0  0  0  0  0  0  0  0  0
    1.7837   -1.7671   -9.5387 H   0  0  0  0  0  0  0  0  0  0  0  0
    0.0093   -1.8016   -9.0325 H   0  0  0  0  0  0  0  0  0  0  0  0
   -1.5283    3.3300   -3.2184 H   0  0  0  0  0  0  0  0  0  0  0  0
   -3.9974    2.1038   -3.3982 H   0  0  0  0  0  0  0  0  0  0  0  0
   -3.6315   -0.0974   -3.6423 H   0  0  0  0  0  0  0  0  0  0  0  0
   -1.7578   -1.3449   -3.2223 H   0  0  0  0  0  0  0  0  0  0  0  0
   -0.9831   -0.3159   -4.9948 H   0  0  0  0  0  0  0  0  0  0  0  0
    0.0646    2.2173   -4.1271 H   0  0  0  0  0  0  0  0  0  0  0  0
   -1.5684   -0.2702   -0.8080 H   0  0  0  0  0  0  0  0  0  0  0  0
    0.6637    0.9488   -2.0338 H   0  0  0  0  0  0  0  0  0  0  0  0
   -4.0173   -4.8612    2.4532 H   0  0  0  0  0  0  0  0  0  0  0  0
   -2.3470   -4.8190    3.7249 H   0  0  0  0  0  0  0  0  0  0  0  0
   -4.9929   -3.5953    4.7807 H   0  0  0  0  0  0  0  0  0  0  0  0
   -6.8567   -3.1581    5.5957 H   0  0  0  0  0  0  0  0  0  0  0  0
   -1.8830    2.8169    3.3733 H   0  0  0  0  0  0  0  0  0  0  0  0
   -2.2279    4.9435    4.6963 H   0  0  0  0  0  0  0  0  0  0  0  0
  1  2  1  0
  1 11  1  6
  1 12  1  0
  1 13  1  0
  2  3  1  0
  2  7  1  0
  3  4  1  0
  3 10  1  0
  4  5  1  0
  4 14  1  0
  5  6  1  0
  5  9  1  0
  6  7  1  0
  6 15  1  0
  7  8  1  0
  8 16  1  1
  8 17  1  0
  8171  1  0
  9 19  1  0
  9 21  1  0
 10 18  1  1
 10 20  1  0
 10118  1  0
 23 38  1  0
 38 39  1  0
 38 46  1  0
 39 40  1  0
 39 44  1  0
 39 47  1  6
 40 41  1  0
 40 48  1  1
 40 49  1  0
 41 42  1  0
 41 50  1  6
 41 51  1  0
 42 43  1  0
 42 52  1  1
 42 53  1  0
 43 54  1  1
 43 55  1  0
 44 45  1  0
 44 57  1  0
 57 58  1  0
 57 65  1  0
 58 59  1  0
 58 61  1  0
 58 66  1  6
 59 60  1  0
 59 76  1  0
 61 62  1  0
 61 67  1  1
 61 68  1  0
 62 63  1  0
 62 69  1  6
 62 70  1  0
 63 64  1  0
 63 71  1  6
 63 72  1  0
 64 73  1  1
 64 74  1  0
 64 75  1  0
 78 97  1  0
 97 98  1  0
 97104  1  0
 98 99  1  0
 98101  1  0
 98105  1  6
 99100  1  0
 99113  1  0
101102  1  0
101106  1  6
101107  1  0
102103  1  0
102108  1  1
102109  1  0
103110  1  1
103111  1  0
199207  1  0
207208  1  0
207209  1  0
 22 21  1  0
 23 22  1  0
 24 23  2  0
 25 22  1  0
 26 25  1  0
 27 26  1  0
 28 26  2  0
 29 27  2  0
 30 28  1  0
 30 29  1  0
 31 21  1  0
 22 32  1  6
 33 25  1  0
 34 25  1  0
 35 28  1  0
 36 29  1  0
 37 30  1  0
 56 43  1  0
 77 76  1  0
 78 77  1  0
 79 78  2  0
 80 77  1  0
 81 80  1  0
 82 81  2  0
 83 81  1  0
 84 82  1  0
 85 83  2  0
 86 85  1  0
 86 84  2  0
 87 86  1  0
 88 76  1  0
 77 89  1  1
 90 80  1  0
 91 80  1  0
 92 82  1  0
 93 83  1  0
 94 84  1  0
 95 85  1  0
 96 87  1  0
112103  1  0
114113  1  0
115114  1  0
116115  2  0
117114  1  0
118117  1  0
119113  1  0
114120  1  1
121117  1  0
122117  1  0
123115  1  0
124123  1  0
125124  1  0
126125  2  0
127124  1  0
128127  1  0
129127  1  0
130128  1  0
131123  1  0
124132  1  6
127133  1  1
134128  1  0
135128  1  0
136129  1  0
137129  1  0
138129  1  0
139130  1  0
140130  1  0
141130  1  0
142125  1  0
143142  1  0
144143  1  0
145144  2  0
146143  1  0
147146  1  0
148147  1  0
149148  1  0
150149  1  0
151150  1  0
152150  2  0
153142  1  0
143154  1  6
155146  1  0
156146  1  0
157147  1  0
158147  1  0
159148  1  0
160148  1  0
161149  1  0
162151  1  0
163151  1  0
164152  1  0
165152  1  0
166144  1  0
167166  1  0
168167  1  0
169168  2  0
170167  1  0
171170  1  0
172166  1  0
167173  1  1
174170  1  0
175170  1  0
176168  1  0
177176  1  0
178177  1  0
179178  2  0
180177  1  0
181180  1  0
182181  2  0
183181  1  0
184182  1  0
185183  2  0
186185  1  0
186184  2  0
187186  1  0
188176  1  0
177189  1  6
190180  1  0
191180  1  0
192182  1  0
193183  1  0
194184  1  0
195185  1  0
196187  1  0
197178  1  0
198197  1  0
199198  1  0
200199  2  0
201198  1  0
202197  1  0
198203  1  6
204201  1  0
205201  1  0
206201  1  0
  2210  1  1
  3211  1  6
  4212  1  0
  5213  1  0
  6214  1  0
  7215  1  0
  9216  1  0
 19217  1  0
 44218  1  0
 45219  1  0
 59220  1  0
 60221  1  0
 99222  1  0
100223  1  0
M  CHG  3  43   1 103   1 152   1
M  END
$$$$
BP70
     RDKit          3D

223228  0  0  0  0  0  0  0  0999 V2000
   -2.5354    0.7517    0.6155 C   0  0  2  0  0  0  0  0  0  0  0  0
   -1.3609   -0.1697    0.3046 C   0  0  1  0  0  0  0  0  0  0  0  0
   -0.8542    0.0604   -1.0890 C   0  0  1  0  0  0  0  0  0  0  0  0
    0.3992   -0.7430   -1.3171 C   0  0  0  0  0  0  0  0  0  0  0  0
    1.4634   -0.0820   -0.4791 C   0  0  0  0  0  0  0  0  0  0  0  0
    1.0712   -0.4061    0.9656 C   0  0  0  0  0  0  0  0  0  0  0  0
   -0.2802    0.1553    1.2711 C   0  0  0  0  0  0  0  0  0  0  0  0
   -0.6383   -0.0726    2.6756 C   0  0  2  0  0  0  0  0  0  0  0  0
    2.8702   -0.6484   -0.6798 C   0  0  0  0  0  0  0  0  0  0  0  0
   -1.8484   -0.2400   -2.1513 C   0  0  1  0  0  0  0  0  0  0  0  0
   -2.2512    1.5183    1.3353 H   0  0  0  0  0  0  0  0  0  0  0  0
   -3.3872    0.2072    1.0872 H   0  0  0  0  0  0  0  0  0  0  0  0
   -2.9428    1.1825   -0.3219 H   0  0  0  0  0  0  0  0  0  0  0  0
    0.7006   -0.6495   -2.4065 H   0  0  0  0  0  0  0  0  0  0  0  0
    1.7879    0.1151    1.6259 H   0  0  0  0  0  0  0  0  0  0  0  0
   -1.6466    0.4071    2.9381 H   0  0  0  0  0  0  0  0  0  0  0  0
    0.0594    0.6125    3.2893 H   0  0  0  0  0  0  0  0  0  0  0  0
   -1.6318   -1.1562   -2.7334 H   0  0  0  0  0  0  0  0  0  0  0  0
    3.2570   -0.4363   -1.9575 O   0  0  0  0  0  0  0  0  0  0  0  0
   -2.8825   -0.3685   -1.7407 H   0  0  0  0  0  0  0  0  0  0  0  0
    3.6574   -0.4548    0.4160 N   0  0  0  0  0  0  0  0  0  0  0  0
    4.8000    0.2047    0.7521 C   0  0  2  0  0  0  0  0  0  0  0  0
    4.7936    1.6799    0.6086 C   0  0  0  0  0  0  0  0  0  0  0  0
    5.5798    2.3970    1.2622 O   0  0  0  0  0  0  0  0  0  0  0  0
    6.0788   -0.3740    0.1413 C   0  0  0  0  0  0  0  0  0  0  0  0
    7.2722    0.3515    0.5854 C   0  0  0  0  0  0  0  0  0  0  0  0
    7.9423    1.4052    0.1211 N   0  0  0  0  0  0  0  0  0  0  0  0
    7.9848   -0.0393    1.7357 C   0  0  0  0  0  0  0  0  0  0  0  0
    9.0122    1.6762    0.9127 C   0  0  0  0  0  0  0  0  0  0  0  0
    9.0355    0.7782    1.9129 N   0  0  0  0  0  0  0  0  0  0  0  0
    3.2980   -1.0846    1.2388 H   0  0  0  0  0  0  0  0  0  0  0  0
    4.9935   -0.0340    1.8734 H   0  0  0  0  0  0  0  0  0  0  0  0
    6.0491   -0.2228   -0.9787 H   0  0  0  0  0  0  0  0  0  0  0  0
    6.1665   -1.4273    0.4157 H   0  0  0  0  0  0  0  0  0  0  0  0
    7.7398   -0.8746    2.4006 H   0  0  0  0  0  0  0  0  0  0  0  0
    9.7315    2.4500    0.7984 H   0  0  0  0  0  0  0  0  0  0  0  0
    9.7341    0.7184    2.6856 H   0  0  0  0  0  0  0  0  0  0  0  0
    3.9410    2.4124   -0.2632 N   0  0  0  0  0  0  0  0  0  0  0  0
    3.7424    3.8403   -0.3092 C   0  0  1  0  0  0  0  0  0  0  0  0
    4.2042    4.5822   -1.4980 C   0  0  2  0  0  0  0  0  0  0  0  0
    5.6051    4.5830   -1.9167 C   0  0  2  0  0  0  0  0  0  0  0  0
    6.1617    3.2689   -2.3593 C   0  0  1  0  0  0  0  0  0  0  0  0
    5.3490    2.8377   -3.5391 N   0  0  2  0  0  0  0  0  0  0  0  0
    2.1863    4.0422   -0.1965 C   0  0  0  0  0  0  0  0  0  0  0  0
    1.8459    3.5329    1.0437 O   0  0  0  0  0  0  0  0  0  0  0  0
    3.4388    1.8595   -0.9508 H   0  0  0  0  0  0  0  0  0  0  0  0
    4.2336    4.2805    0.5756 H   0  0  0  0  0  0  0  0  0  0  0  0
    3.9256    5.6839   -1.3262 H   0  0  0  0  0  0  0  0  0  0  0  0
    3.5847    4.2777   -2.3887 H   0  0  0  0  0  0  0  0  0  0  0  0
    6.2975    5.0765   -1.1522 H   0  0  0  0  0  0  0  0  0  0  0  0
    5.6887    5.3147   -2.7819 H   0  0  0  0  0  0  0  0  0  0  0  0
    7.1990    3.3714   -2.7769 H   0  0  0  0  0  0  0  0  0  0  0  0
    6.1286    2.4505   -1.6603 H   0  0  0  0  0  0  0  0  0  0  0  0
    5.9970    2.4447   -4.2861 H   0  0  0  0  0  0  0  0  0  0  0  0
    4.7882    3.6551   -3.8969 H   0  0  0  0  0  0  0  0  0  0  0  0
    4.6793    2.0588   -3.2186 H   0  0  0  0  0  0  0  0  0  0  0  0
    1.8858    5.3957   -0.3534 N   0  0  0  0  0  0  0  0  0  0  0  0
    0.5492    5.6742   -0.8025 C   0  0  2  0  0  0  0  0  0  0  0  0
   -0.5669    5.1521    0.0614 C   0  0  0  0  0  0  0  0  0  0  0  0
   -0.6100    5.7008    1.2995 O   0  0  0  0  0  0  0  0  0  0  0  0
    0.2796    5.4348   -2.2491 C   0  0  2  0  0  0  0  0  0  0  0  0
    1.1604    6.2903   -3.1434 C   0  0  1  0  0  0  0  0  0  0  0  0
    0.8028    5.9709   -4.5937 C   0  0  1  0  0  0  0  0  0  0  0  0
    1.6242    6.7844   -5.5524 C   0  0  2  0  0  0  0  0  0  0  0  0
    2.0542    5.9426    0.4993 H   0  0  0  0  0  0  0  0  0  0  0  0
    0.4587    6.8118   -0.6874 H   0  0  0  0  0  0  0  0  0  0  0  0
   -0.7624    5.8465   -2.4338 H   0  0  0  0  0  0  0  0  0  0  0  0
    0.2194    4.3833   -2.5454 H   0  0  0  0  0  0  0  0  0  0  0  0
    0.8509    7.3510   -2.9262 H   0  0  0  0  0  0  0  0  0  0  0  0
    2.2266    6.1335   -3.0247 H   0  0  0  0  0  0  0  0  0  0  0  0
    0.9273    4.9012   -4.7410 H   0  0  0  0  0  0  0  0  0  0  0  0
   -0.2645    6.2820   -4.6932 H   0  0  0  0  0  0  0  0  0  0  0  0
    1.4074    7.8624   -5.3585 H   0  0  0  0  0  0  0  0  0  0  0  0
    1.2226    6.5777   -6.5653 H   0  0  0  0  0  0  0  0  0  0  0  0
    2.6866    6.5457   -5.5441 H   0  0  0  0  0  0  0  0  0  0  0  0
   -1.7925    5.1359   -0.6276 N   0  0  0  0  0  0  0  0  0  0  0  0
   -3.0063    4.8014    0.0102 C   0  0  2  0  0  0  0  0  0  0  0  0
   -4.1317    4.5716   -0.9665 C   0  0  0  0  0  0  0  0  0  0  0  0
   -5.2707    4.2236   -0.6408 O   0  0  0  0  0  0  0  0  0  0  0  0
   -3.4309    5.6925    1.1351 C   0  0  0  0  0  0  0  0  0  0  0  0
   -4.7369    5.3250    1.7572 C   0  0  0  0  0  0  0  0  0  0  0  0
   -5.9139    5.9441    1.3079 C   0  0  0  0  0  0  0  0  0  0  0  0
   -4.8837    4.4126    2.7583 C   0  0  0  0  0  0  0  0  0  0  0  0
   -7.1427    5.6439    1.8489 C   0  0  0  0  0  0  0  0  0  0  0  0
   -6.1009    4.0894    3.3216 C   0  0  0  0  0  0  0  0  0  0  0  0
   -7.2492    4.7146    2.8599 C   0  0  0  0  0  0  0  0  0  0  0  0
   -8.5108    4.4415    3.3747 O   0  0  0  0  0  0  0  0  0  0  0  0
   -1.6675    4.3816   -1.3946 H   0  0  0  0  0  0  0  0  0  0  0  0
   -2.8469    3.7853    0.4842 H   0  0  0  0  0  0  0  0  0  0  0  0
   -3.5621    6.7474    0.7606 H   0  0  0  0  0  0  0  0  0  0  0  0
   -2.7132    5.6513    2.0065 H   0  0  0  0  0  0  0  0  0  0  0  0
   -5.7889    6.6652    0.5160 H   0  0  0  0  0  0  0  0  0  0  0  0
   -3.9871    3.9117    3.1294 H   0  0  0  0  0  0  0  0  0  0  0  0
   -8.0057    6.1590    1.4541 H   0  0  0  0  0  0  0  0  0  0  0  0
   -6.1800    3.3605    4.1125 H   0  0  0  0  0  0  0  0  0  0  0  0
   -9.0489    3.6268    3.1082 H   0  0  0  0  0  0  0  0  0  0  0  0
   -3.9510    4.7422   -2.3754 N   0  0  0  0  0  0  0  0  0  0  0  0
   -5.0024    4.5271   -3.3575 C   0  0  2  0  0  0  0  0  0  0  0  0
   -4.6954    3.3540   -4.2542 C   0  0  0  0  0  0  0  0  0  0  0  0
   -5.7413    3.2589   -5.2249 O   0  0  0  0  0  0  0  0  0  0  0  0
   -5.3085    5.8090   -4.0188 C   0  0  2  0  0  0  0  0  0  0  0  0
   -6.3570    5.8529   -5.0645 C   0  0  1  0  0  0  0  0  0  0  0  0
   -6.4113    7.2946   -5.4846 N   0  0  2  0  0  0  0  0  0  0  0  0
   -3.0281    5.0340   -2.6753 H   0  0  0  0  0  0  0  0  0  0  0  0
   -5.9586    4.2117   -2.8250 H   0  0  0  0  0  0  0  0  0  0  0  0
   -4.3575    6.2771   -4.3842 H   0  0  0  0  0  0  0  0  0  0  0  0
   -5.6484    6.5370   -3.2181 H   0  0  0  0  0  0  0  0  0  0  0  0
   -6.1139    5.3532   -6.0224 H   0  0  0  0  0  0  0  0  0  0  0  0
   -7.3571    5.6500   -4.6677 H   0  0  0  0  0  0  0  0  0  0  0  0
   -7.0353    7.3273   -6.3611 H   0  0  0  0  0  0  0  0  0  0  0  0
   -5.4332    7.6177   -5.7151 H   0  0  0  0  0  0  0  0  0  0  0  0
   -6.8535    7.8403   -4.6984 H   0  0  0  0  0  0  0  0  0  0  0  0
   -4.8560    2.0889   -3.5230 N   0  0  0  0  0  0  0  0  0  0  0  0
   -4.4253    0.9917   -4.3240 C   0  0  2  0  0  0  0  0  0  0  0  0
   -4.8684   -0.3305   -3.8414 C   0  0  0  0  0  0  0  0  0  0  0  0
   -5.6469   -0.3882   -2.8701 O   0  0  0  0  0  0  0  0  0  0  0  0
   -2.9838    0.9910   -4.6656 C   0  0  0  0  0  0  0  0  0  0  0  0
   -1.8333    1.1500   -3.3162 S   0  0  0  0  0  0  0  0  0  0  0  0
   -4.2508    2.1486   -2.6825 H   0  0  0  0  0  0  0  0  0  0  0  0
   -4.9502    1.0774   -5.3520 H   0  0  0  0  0  0  0  0  0  0  0  0
   -2.7554    1.8123   -5.3859 H   0  0  0  0  0  0  0  0  0  0  0  0
   -2.7524    0.0635   -5.2806 H   0  0  0  0  0  0  0  0  0  0  0  0
   -4.4855   -1.5774   -4.3826 N   0  0  0  0  0  0  0  0  0  0  0  0
   -4.9855   -2.8836   -4.0054 C   0  0  2  0  0  0  0  0  0  0  0  0
   -4.4317   -3.3509   -2.7195 C   0  0  0  0  0  0  0  0  0  0  0  0
   -4.3376   -2.5270   -1.7900 O   0  0  0  0  0  0  0  0  0  0  0  0
   -4.9287   -3.7928   -5.1670 C   0  0  2  0  0  0  0  0  0  0  0  0
   -5.7932   -3.1389   -6.2764 C   0  0  0  0  0  0  0  0  0  0  0  0
   -5.5842   -5.1461   -4.9622 C   0  0  0  0  0  0  0  0  0  0  0  0
   -5.8118   -3.9865   -7.5055 C   0  0  0  0  0  0  0  0  0  0  0  0
   -3.7822   -1.5481   -5.1266 H   0  0  0  0  0  0  0  0  0  0  0  0
   -6.1067   -2.6569   -3.7990 H   0  0  0  0  0  0  0  0  0  0  0  0
   -3.9404   -3.9194   -5.6079 H   0  0  0  0  0  0  0  0  0  0  0  0
   -5.2719   -2.1983   -6.4963 H   0  0  0  0  0  0  0  0  0  0  0  0
   -6.8362   -3.0451   -5.9296 H   0  0  0  0  0  0  0  0  0  0  0  0
   -6.4069   -5.3291   -5.7270 H   0  0  0  0  0  0  0  0  0  0  0  0
   -6.0972   -5.2676   -4.0067 H   0  0  0  0  0  0  0  0  0  0  0  0
   -4.8465   -5.9344   -5.2254 H   0  0  0  0  0  0  0  0  0  0  0  0
   -6.8370   -4.4301   -7.6947 H   0  0  0  0  0  0  0  0  0  0  0  0
   -5.0359   -4.7761   -7.5102 H   0  0  0  0  0  0  0  0  0  0  0  0
   -5.6308   -3.3490   -8.3935 H   0  0  0  0  0  0  0  0  0  0  0  0
   -3.9635   -4.6544   -2.4035 N   0  0  0  0  0  0  0  0  0  0  0  0
   -3.6002   -4.9426   -1.0567 C   0  0  2  0  0  0  0  0  0  0  0  0
   -2.4647   -4.2645   -0.4589 C   0  0  0  0  0  0  0  0  0  0  0  0
   -1.7869   -3.4456   -1.0909 O   0  0  0  0  0  0  0  0  0  0  0  0
   -3.6253   -6.3973   -0.8370 C   0  0  0  0  0  0  0  0  0  0  0  0
   -2.7136   -7.1999   -1.7196 C   0  0  0  0  0  0  0  0  0  0  0  0
   -1.2493   -6.9182   -1.5854 C   0  0  0  0  0  0  0  0  0  0  0  0
   -0.5777   -7.8017   -2.5657 N   0  0  0  0  0  0  0  0  0  0  0  0
    0.8416   -7.7838   -2.6744 C   0  0  0  0  0  0  0  0  0  0  0  0
    1.5315   -8.6089   -3.6048 N   0  0  0  0  0  0  0  0  0  0  0  0
    1.5281   -6.9946   -1.9127 N   0  0  0  0  0  0  0  0  0  0  0  0
   -3.9014   -5.3073   -3.1805 H   0  0  0  0  0  0  0  0  0  0  0  0
   -4.4646   -4.5107   -0.3750 H   0  0  0  0  0  0  0  0  0  0  0  0
   -4.6694   -6.7933   -1.0757 H   0  0  0  0  0  0  0  0  0  0  0  0
   -3.4810   -6.6847    0.2451 H   0  0  0  0  0  0  0  0  0  0  0  0
   -2.9617   -7.0509   -2.7965 H   0  0  0  0  0  0  0  0  0  0  0  0
   -2.8504   -8.3025   -1.5535 H   0  0  0  0  0  0  0  0  0  0  0  0
   -1.0142   -5.8739   -1.8481 H   0  0  0  0  0  0  0  0  0  0  0  0
   -0.8523   -7.2133   -0.5823 H   0  0  0  0  0  0  0  0  0  0  0  0
   -1.1151   -8.4434   -3.1851 H   0  0  0  0  0  0  0  0  0  0  0  0
    2.5589   -8.7735   -3.4773 H   0  0  0  0  0  0  0  0  0  0  0  0
    1.0340   -9.0558   -4.4187 H   0  0  0  0  0  0  0  0  0  0  0  0
    1.0301   -6.3781   -1.2256 H   0  0  0  0  0  0  0  0  0  0  0  0
    2.5647   -6.9610   -1.9691 H   0  0  0  0  0  0  0  0  0  0  0  0
   -2.0478   -4.4832    0.8906 N   0  0  0  0  0  0  0  0  0  0  0  0
   -0.9581   -3.6692    1.4991 C   0  0  2  0  0  0  0  0  0  0  0  0
    0.0161   -4.7044    2.0083 C   0  0  0  0  0  0  0  0  0  0  0  0
   -0.2254   -5.8915    1.6809 O   0  0  0  0  0  0  0  0  0  0  0  0
   -1.4669   -3.0040    2.7387 C   0  0  0  0  0  0  0  0  0  0  0  0
   -0.4716   -1.6873    3.3147 S   0  0  0  0  0  0  0  0  0  0  0  0
   -2.5361   -5.2196    1.3909 H   0  0  0  0  0  0  0  0  0  0  0  0
   -0.4961   -3.1074    0.7399 H   0  0  0  0  0  0  0  0  0  0  0  0
   -2.5272   -2.6646    2.6372 H   0  0  0  0  0  0  0  0  0  0  0  0
   -1.5437   -3.7779    3.5625 H   0  0  0  0  0  0  0  0  0  0  0  0
    1.1471   -4.4224    2.8153 N   0  0  0  0  0  0  0  0  0  0  0  0
    1.9386   -5.5752    3.2130 C   0  0  2  0  0  0  0  0  0  0  0  0
    1.5929   -5.9697    4.6248 C   0  0  0  0  0  0  0  0  0  0  0  0
    2.1274   -7.0179    5.0567 O   0  0  0  0  0  0  0  0  0  0  0  0
    3.4165   -5.3431    3.2187 C   0  0  0  0  0  0  0  0  0  0  0  0
    3.8827   -4.2862    4.1310 C   0  0  0  0  0  0  0  0  0  0  0  0
    4.2432   -4.4873    5.4441 C   0  0  0  0  0  0  0  0  0  0  0  0
    3.9856   -2.9839    3.6615 C   0  0  0  0  0  0  0  0  0  0  0  0
    4.6867   -3.4709    6.2752 C   0  0  0  0  0  0  0  0  0  0  0  0
    4.4284   -1.9639    4.4851 C   0  0  0  0  0  0  0  0  0  0  0  0
    4.7842   -2.1921    5.7996 C   0  0  0  0  0  0  0  0  0  0  0  0
    5.2310   -1.1630    6.6270 O   0  0  0  0  0  0  0  0  0  0  0  0
    1.3584   -3.4422    3.0837 H   0  0  0  0  0  0  0  0  0  0  0  0
    1.6727   -6.4353    2.6075 H   0  0  0  0  0  0  0  0  0  0  0  0
    3.7019   -5.0050    2.1745 H   0  0  0  0  0  0  0  0  0  0  0  0
    3.9914   -6.2898    3.3404 H   0  0  0  0  0  0  0  0  0  0  0  0
    4.1939   -5.4687    5.8840 H   0  0  0  0  0  0  0  0  0  0  0  0
    3.7094   -2.8271    2.6460 H   0  0  0  0  0  0  0  0  0  0  0  0
    4.9608   -3.6846    7.3102 H   0  0  0  0  0  0  0  0  0  0  0  0
    4.5121   -0.9315    4.1161 H   0  0  0  0  0  0  0  0  0  0  0  0
    5.0989   -0.1862    6.3809 H   0  0  0  0  0  0  0  0  0  0  0  0
    0.7063   -5.1562    5.3672 N   0  0  0  0  0  0  0  0  0  0  0  0
    0.2946   -5.4219    6.7174 C   0  0  2  0  0  0  0  0  0  0  0  0
   -1.1762   -5.4519    6.8728 C   0  0  0  0  0  0  0  0  0  0  0  0
   -1.9289   -5.2689    5.8712 O   0  0  0  0  0  0  0  0  0  0  0  0
    0.8285   -4.3758    7.6615 C   0  0  0  0  0  0  0  0  0  0  0  0
    0.3358   -4.3077    4.9030 H   0  0  0  0  0  0  0  0  0  0  0  0
    0.7095   -6.4027    7.0837 H   0  0  0  0  0  0  0  0  0  0  0  0
    1.5759   -4.8099    8.3902 H   0  0  0  0  0  0  0  0  0  0  0  0
    1.3432   -3.5399    7.1881 H   0  0  0  0  0  0  0  0  0  0  0  0
    0.0336   -3.9615    8.3302 H   0  0  0  0  0  0  0  0  0  0  0  0
   -1.6985   -5.6926    8.1784 N   0  0  0  0  0  0  0  0  0  0  0  0
   -1.4039   -6.4899    8.7718 H   0  0  0  0  0  0  0  0  0  0  0  0
   -2.4183   -4.9912    8.5034 H   0  0  0  0  0  0  0  0  0  0  0  0
   -1.7243   -1.1654    0.4305 H   0  0  0  0  0  0  0  0  0  0  0  0
   -0.5155    1.1376   -1.1176 H   0  0  0  0  0  0  0  0  0  0  0  0
    0.3226   -1.8102   -1.0848 H   0  0  0  0  0  0  0  0  0  0  0  0
    1.3795    0.9817   -0.6519 H   0  0  0  0  0  0  0  0  0  0  0  0
    1.1898   -1.4866    1.0972 H   0  0  0  0  0  0  0  0  0  0  0  0
   -0.1369    1.3015    1.0969 H   0  0  0  0  0  0  0  0  0  0  0  0
    2.6361   -1.8061   -0.6808 H   0  0  0  0  0  0  0  0  0  0  0  0
    4.0140   -0.9975   -2.2569 H   0  0  0  0  0  0  0  0  0  0  0  0
    1.7966    3.3702   -0.9927 H   0  0  0  0  0  0  0  0  0  0  0  0
    2.3125    4.0554    1.7662 H   0  0  0  0  0  0  0  0  0  0  0  0
   -0.2326    4.0536    0.2690 H   0  0  0  0  0  0  0  0  0  0  0  0
   -0.6763    6.6792    1.3042 H   0  0  0  0  0  0  0  0  0  0  0  0
   -3.7480    3.3606   -4.7503 H   0  0  0  0  0  0  0  0  0  0  0  0
   -5.3986    2.9257   -6.0927 H   0  0  0  0  0  0  0  0  0  0  0  0
  1  2  1  0
  1 11  1  1
  1 12  1  0
  1 13  1  0
  2  3  1  0
  2  7  1  0
  3  4  1  0
  3 10  1  0
  4  5  1  0
  4 14  1  0
  5  6  1  0
  5  9  1  0
  6  7  1  0
  6 15  1  0
  7  8  1  0
  8 16  1  6
  8 17  1  0
  8171  1  0
  9 19  1  0
  9 21  1  0
 10 18  1  6
 10 20  1  0
 10118  1  0
 23 38  1  0
 38 39  1  0
 38 46  1  0
 39 40  1  0
 39 44  1  0
 39 47  1  1
 40 41  1  0
 40 48  1  1
 40 49  1  0
 41 42  1  0
 41 50  1  1
 41 51  1  0
 42 43  1  0
 42 52  1  6
 42 53  1  0
 43 54  1  6
 43 55  1  0
 44 45  1  0
 44 57  1  0
 57 58  1  0
 57 65  1  0
 58 59  1  0
 58 61  1  0
 58 66  1  6
 59 60  1  0
 59 76  1  0
 61 62  1  0
 61 67  1  1
 61 68  1  0
 62 63  1  0
 62 69  1  1
 62 70  1  0
 63 64  1  0
 63 71  1  6
 63 72  1  0
 64 73  1  1
 64 74  1  0
 64 75  1  0
 78 97  1  0
 97 98  1  0
 97104  1  0
 98 99  1  0
 98101  1  0
 98105  1  1
 99100  1  0
 99113  1  0
101102  1  0
101106  1  6
101107  1  0
102103  1  0
102108  1  6
102109  1  0
103110  1  6
103111  1  0
199207  1  0
207208  1  0
207209  1  0
 22 21  1  0
 23 22  1  0
 24 23  2  0
 25 22  1  0
 26 25  1  0
 27 26  1  0
 28 26  2  0
 29 27  2  0
 30 28  1  0
 30 29  1  0
 31 21  1  0
 22 32  1  1
 33 25  1  0
 34 25  1  0
 35 28  1  0
 36 29  1  0
 37 30  1  0
 56 43  1  0
 77 76  1  0
 78 77  1  0
 79 78  2  0
 80 77  1  0
 81 80  1  0
 82 81  2  0
 83 81  1  0
 84 82  1  0
 85 83  2  0
 86 85  1  0
 86 84  2  0
 87 86  1  0
 88 76  1  0
 77 89  1  1
 90 80  1  0
 91 80  1  0
 92 82  1  0
 93 83  1  0
 94 84  1  0
 95 85  1  0
 96 87  1  0
112103  1  0
114113  1  0
115114  1  0
116115  2  0
117114  1  0
118117  1  0
119113  1  0
114120  1  6
121117  1  0
122117  1  0
123115  1  0
124123  1  0
125124  1  0
126125  2  0
127124  1  0
128127  1  0
129127  1  0
130128  1  0
131123  1  0
124132  1  1
127133  1  6
134128  1  0
135128  1  0
136129  1  0
137129  1  0
138129  1  0
139130  1  0
140130  1  0
141130  1  0
142125  1  0
143142  1  0
144143  1  0
145144  2  0
146143  1  0
147146  1  0
148147  1  0
149148  1  0
150149  1  0
151150  1  0
152150  2  0
153142  1  0
143154  1  1
155146  1  0
156146  1  0
157147  1  0
158147  1  0
159148  1  0
160148  1  0
161149  1  0
162151  1  0
163151  1  0
164152  1  0
165152  1  0
166144  1  0
167166  1  0
168167  1  0
169168  2  0
170167  1  0
171170  1  0
172166  1  0
167173  1  6
174170  1  0
175170  1  0
176168  1  0
177176  1  0
178177  1  0
179178  2  0
180177  1  0
181180  1  0
182181  2  0
183181  1  0
184182  1  0
185183  2  0
186185  1  0
186184  2  0
187186  1  0
188176  1  0
177189  1  6
190180  1  0
191180  1  0
192182  1  0
193183  1  0
194184  1  0
195185  1  0
196187  1  0
197178  1  0
198197  1  0
199198  1  0
200199  2  0
201198  1  0
202197  1  0
198203  1  1
204201  1  0
205201  1  0
206201  1  0
  2210  1  6
  3211  1  1
  4212  1  0
  5213  1  0
  6214  1  0
  7215  1  0
  9216  1  0
 19217  1  0
 44218  1  0
 45219  1  0
 59220  1  0
 60221  1  0
 99222  1  0
100223  1  0
M  CHG  3  43   1 103   1 152   1
M  END
$$$$
BP70
     RDKit          3D

223228  0  0  0  0  0  0  0  0999 V2000
    1.6915    5.6057   -1.8608 C   0  0  2  0  0  0  0  0  0  0  0  0
    2.0371    4.1498   -1.9680 C   0  0  1  0  0  0  0  0  0  0  0  0
    2.2541    3.5019   -0.6259 C   0  0  1  0  0  0  0  0  0  0  0  0
    3.2062    2.3449   -0.9314 C   0  0  0  0  0  0  0  0  0  0  0  0
    2.8610    1.6882   -2.2280 C   0  0  0  0  0  0  0  0  0  0  0  0
    1.4383    1.8715   -2.6971 C   0  0  0  0  0  0  0  0  0  0  0  0
    0.9919    3.2870   -2.6149 C   0  0  0  0  0  0  0  0  0  0  0  0
    0.3474    3.8654   -3.8277 C   0  0  2  0  0  0  0  0  0  0  0  0
    3.3785    0.3041   -2.2722 C   0  0  0  0  0  0  0  0  0  0  0  0
    2.6602    4.4253    0.4429 C   0  0  1  0  0  0  0  0  0  0  0  0
    0.8822    5.7906   -1.1303 H   0  0  0  0  0  0  0  0  0  0  0  0
    1.4714    6.0369   -2.8532 H   0  0  0  0  0  0  0  0  0  0  0  0
    2.6377    6.1466   -1.5663 H   0  0  0  0  0  0  0  0  0  0  0  0
    4.2361    2.7957   -0.9786 H   0  0  0  0  0  0  0  0  0  0  0  0
    0.7843    1.1594   -2.1485 H   0  0  0  0  0  0  0  0  0  0  0  0
    0.9866    3.9376   -4.7142 H   0  0  0  0  0  0  0  0  0  0  0  0
   -0.0085    4.8944   -3.5745 H   0  0  0  0  0  0  0  0  0  0  0  0
    3.7904    4.4298    0.5265 H   0  0  0  0  0  0  0  0  0  0  0  0
    4.5382    0.2655   -1.4052 O   0  0  0  0  0  0  0  0  0  0  0  0
    2.3495    5.4833    0.2856 H   0  0  0  0  0  0  0  0  0  0  0  0
    2.6167   -0.7846   -1.8505 N   0  0  0  0  0  0  0  0  0  0  0  0
    2.6540   -2.0087   -2.6564 C   0  0  2  0  0  0  0  0  0  0  0  0
    2.5787   -3.2508   -1.8721 C   0  0  0  0  0  0  0  0  0  0  0  0
    2.2778   -4.3670   -2.3560 O   0  0  0  0  0  0  0  0  0  0  0  0
    3.7273   -1.9535   -3.6912 C   0  0  0  0  0  0  0  0  0  0  0  0
    3.8317   -3.1622   -4.5410 C   0  0  0  0  0  0  0  0  0  0  0  0
    3.1905   -4.3042   -4.6207 N   0  0  0  0  0  0  0  0  0  0  0  0
    4.8373   -3.2419   -5.5205 C   0  0  0  0  0  0  0  0  0  0  0  0
    3.7230   -5.0785   -5.5722 C   0  0  0  0  0  0  0  0  0  0  0  0
    4.7448   -4.4171   -6.1321 N   0  0  0  0  0  0  0  0  0  0  0  0
    1.6494   -0.6071   -1.5021 H   0  0  0  0  0  0  0  0  0  0  0  0
    1.6946   -1.8717   -3.2744 H   0  0  0  0  0  0  0  0  0  0  0  0
    3.4269   -1.1577   -4.4250 H   0  0  0  0  0  0  0  0  0  0  0  0
    4.7485   -1.7672   -3.3040 H   0  0  0  0  0  0  0  0  0  0  0  0
    5.5640   -2.4767   -5.7463 H   0  0  0  0  0  0  0  0  0  0  0  0
    3.3538   -6.0867   -5.8319 H   0  0  0  0  0  0  0  0  0  0  0  0
    5.3383   -4.7776   -6.9025 H   0  0  0  0  0  0  0  0  0  0  0  0
    2.8555   -3.3486   -0.4367 N   0  0  0  0  0  0  0  0  0  0  0  0
    2.7660   -4.6349    0.2347 C   0  0  1  0  0  0  0  0  0  0  0  0
    4.2023   -5.1093    0.4453 C   0  0  2  0  0  0  0  0  0  0  0  0
    4.8574   -5.2393   -0.8895 C   0  0  2  0  0  0  0  0  0  0  0  0
    6.2865   -5.6998   -0.8452 C   0  0  1  0  0  0  0  0  0  0  0  0
    6.3854   -7.0382   -0.1845 N   0  0  2  0  0  0  0  0  0  0  0  0
    1.9789   -4.6544    1.5202 C   0  0  0  0  0  0  0  0  0  0  0  0
    0.7284   -4.1809    1.1969 O   0  0  0  0  0  0  0  0  0  0  0  0
    3.1055   -2.4583   -0.0149 H   0  0  0  0  0  0  0  0  0  0  0  0
    2.3161   -5.3537   -0.4592 H   0  0  0  0  0  0  0  0  0  0  0  0
    4.2993   -6.0182    1.0223 H   0  0  0  0  0  0  0  0  0  0  0  0
    4.7181   -4.2880    1.0091 H   0  0  0  0  0  0  0  0  0  0  0  0
    4.8427   -4.2948   -1.4736 H   0  0  0  0  0  0  0  0  0  0  0  0
    4.3077   -5.9947   -1.4972 H   0  0  0  0  0  0  0  0  0  0  0  0
    6.6103   -5.8970   -1.9015 H   0  0  0  0  0  0  0  0  0  0  0  0
    6.9898   -5.0270   -0.3408 H   0  0  0  0  0  0  0  0  0  0  0  0
    7.3378   -7.4280   -0.3876 H   0  0  0  0  0  0  0  0  0  0  0  0
    5.6310   -7.6593   -0.6201 H   0  0  0  0  0  0  0  0  0  0  0  0
    6.1764   -6.9213    0.8507 H   0  0  0  0  0  0  0  0  0  0  0  0
    2.5415   -4.0072    2.6139 N   0  0  0  0  0  0  0  0  0  0  0  0
    1.9246   -3.6944    3.8102 C   0  0  2  0  0  0  0  0  0  0  0  0
    2.8633   -2.7170    4.5621 C   0  0  0  0  0  0  0  0  0  0  0  0
    2.3334   -2.1813    5.6835 O   0  0  0  0  0  0  0  0  0  0  0  0
    1.4805   -4.6897    4.8004 C   0  0  2  0  0  0  0  0  0  0  0  0
    0.4249   -5.6559    4.4210 C   0  0  1  0  0  0  0  0  0  0  0  0
   -0.8935   -4.9628    4.0925 C   0  0  1  0  0  0  0  0  0  0  0  0
   -1.8848   -6.0290    3.6873 C   0  0  2  0  0  0  0  0  0  0  0  0
    3.5782   -4.3026    2.7251 H   0  0  0  0  0  0  0  0  0  0  0  0
    1.0000   -3.0802    3.5709 H   0  0  0  0  0  0  0  0  0  0  0  0
    1.0343   -4.0811    5.6584 H   0  0  0  0  0  0  0  0  0  0  0  0
    2.3041   -5.2637    5.2948 H   0  0  0  0  0  0  0  0  0  0  0  0
    0.6460   -6.3605    3.6091 H   0  0  0  0  0  0  0  0  0  0  0  0
    0.1537   -6.3370    5.2906 H   0  0  0  0  0  0  0  0  0  0  0  0
   -1.2970   -4.5740    5.0966 H   0  0  0  0  0  0  0  0  0  0  0  0
   -0.8416   -4.1874    3.3615 H   0  0  0  0  0  0  0  0  0  0  0  0
   -1.5871   -6.3358    2.6406 H   0  0  0  0  0  0  0  0  0  0  0  0
   -2.9275   -5.6655    3.6957 H   0  0  0  0  0  0  0  0  0  0  0  0
   -1.7612   -6.9730    4.2757 H   0  0  0  0  0  0  0  0  0  0  0  0
    3.7259   -2.0442    3.7243 N   0  0  0  0  0  0  0  0  0  0  0  0
    4.1349   -0.6980    3.8296 C   0  0  2  0  0  0  0  0  0  0  0  0
    3.2483    0.1564    3.0055 C   0  0  0  0  0  0  0  0  0  0  0  0
    3.6533    1.2079    2.5498 O   0  0  0  0  0  0  0  0  0  0  0  0
    5.5970   -0.4710    3.6943 C   0  0  0  0  0  0  0  0  0  0  0  0
    6.2712   -0.9193    2.4930 C   0  0  0  0  0  0  0  0  0  0  0  0
    6.8376   -2.1988    2.5065 C   0  0  0  0  0  0  0  0  0  0  0  0
    6.4226   -0.1928    1.3267 C   0  0  0  0  0  0  0  0  0  0  0  0
    7.5124   -2.7380    1.4421 C   0  0  0  0  0  0  0  0  0  0  0  0
    7.1111   -0.7410    0.2425 C   0  0  0  0  0  0  0  0  0  0  0  0
    7.6548   -1.9994    0.2871 C   0  0  0  0  0  0  0  0  0  0  0  0
    8.3193   -2.4646   -0.8402 O   0  0  0  0  0  0  0  0  0  0  0  0
    4.4377   -2.6421    3.2142 H   0  0  0  0  0  0  0  0  0  0  0  0
    3.9002   -0.3232    4.9120 H   0  0  0  0  0  0  0  0  0  0  0  0
    5.8237    0.6484    3.8450 H   0  0  0  0  0  0  0  0  0  0  0  0
    6.1187   -0.9369    4.5852 H   0  0  0  0  0  0  0  0  0  0  0  0
    6.7826   -2.8326    3.4030 H   0  0  0  0  0  0  0  0  0  0  0  0
    6.0126    0.7975    1.2652 H   0  0  0  0  0  0  0  0  0  0  0  0
    7.9638   -3.7285    1.4495 H   0  0  0  0  0  0  0  0  0  0  0  0
    7.1909   -0.1285   -0.6526 H   0  0  0  0  0  0  0  0  0  0  0  0
    8.6633   -3.4076   -0.9440 H   0  0  0  0  0  0  0  0  0  0  0  0
    1.9227   -0.2243    2.7525 N   0  0  0  0  0  0  0  0  0  0  0  0
    0.9515    0.3311    1.8505 C   0  0  2  0  0  0  0  0  0  0  0  0
   -0.1505    1.1396    2.5545 C   0  0  0  0  0  0  0  0  0  0  0  0
   -0.9680    1.6407    1.6113 O   0  0  0  0  0  0  0  0  0  0  0  0
    0.2702   -0.9000    1.2171 C   0  0  2  0  0  0  0  0  0  0  0  0
   -0.8121   -0.6675    0.2591 C   0  0  1  0  0  0  0  0  0  0  0  0
   -1.2593   -2.0558   -0.1744 N   0  0  2  0  0  0  0  0  0  0  0  0
    1.5821   -0.9999    3.3394 H   0  0  0  0  0  0  0  0  0  0  0  0
    1.3203    0.9839    1.0689 H   0  0  0  0  0  0  0  0  0  0  0  0
   -0.1027   -1.5545    2.0564 H   0  0  0  0  0  0  0  0  0  0  0  0
    1.1009   -1.4471    0.6867 H   0  0  0  0  0  0  0  0  0  0  0  0
   -1.7792   -0.3148    0.7182 H   0  0  0  0  0  0  0  0  0  0  0  0
   -0.5649   -0.1903   -0.6785 H   0  0  0  0  0  0  0  0  0  0  0  0
   -0.4305   -2.4731   -0.6856 H   0  0  0  0  0  0  0  0  0  0  0  0
   -2.1046   -1.9441   -0.7836 H   0  0  0  0  0  0  0  0  0  0  0  0
   -1.4662   -2.5935    0.7159 H   0  0  0  0  0  0  0  0  0  0  0  0
    0.4191    2.0206    3.4798 N   0  0  0  0  0  0  0  0  0  0  0  0
   -0.0948    3.3738    3.5806 C   0  0  2  0  0  0  0  0  0  0  0  0
   -1.5415    3.4424    3.8879 C   0  0  0  0  0  0  0  0  0  0  0  0
   -2.1461    4.5176    3.8776 O   0  0  0  0  0  0  0  0  0  0  0  0
    0.2750    4.0907    2.2921 C   0  0  0  0  0  0  0  0  0  0  0  0
    2.0705    3.9731    2.0752 S   0  0  0  0  0  0  0  0  0  0  0  0
    0.7245    1.6694    4.3922 H   0  0  0  0  0  0  0  0  0  0  0  0
    0.4450    3.8562    4.4245 H   0  0  0  0  0  0  0  0  0  0  0  0
    0.0965    5.2034    2.4862 H   0  0  0  0  0  0  0  0  0  0  0  0
   -0.3209    3.8765    1.4339 H   0  0  0  0  0  0  0  0  0  0  0  0
   -2.3244    2.3027    4.2340 N   0  0  0  0  0  0  0  0  0  0  0  0
   -3.7427    2.1800    4.3367 C   0  0  2  0  0  0  0  0  0  0  0  0
   -4.5258    2.5076    3.1359 C   0  0  0  0  0  0  0  0  0  0  0  0
   -5.7601    2.3172    3.1490 O   0  0  0  0  0  0  0  0  0  0  0  0
   -4.3387    2.5628    5.6479 C   0  0  2  0  0  0  0  0  0  0  0  0
   -3.6954    1.6533    6.7095 C   0  0  0  0  0  0  0  0  0  0  0  0
   -5.8019    2.1939    5.6728 C   0  0  0  0  0  0  0  0  0  0  0  0
   -3.9528    0.2157    6.4352 C   0  0  0  0  0  0  0  0  0  0  0  0
   -1.7431    1.4831    4.4902 H   0  0  0  0  0  0  0  0  0  0  0  0
   -3.8631    1.0038    4.3680 H   0  0  0  0  0  0  0  0  0  0  0  0
   -4.1642    3.6183    5.9451 H   0  0  0  0  0  0  0  0  0  0  0  0
   -4.2026    1.9226    7.6702 H   0  0  0  0  0  0  0  0  0  0  0  0
   -2.6454    1.8868    6.8483 H   0  0  0  0  0  0  0  0  0  0  0  0
   -6.0565    1.2849    5.1130 H   0  0  0  0  0  0  0  0  0  0  0  0
   -6.4365    3.0356    5.3093 H   0  0  0  0  0  0  0  0  0  0  0  0
   -6.1529    1.9609    6.7272 H   0  0  0  0  0  0  0  0  0  0  0  0
   -4.9236   -0.0500    6.0342 H   0  0  0  0  0  0  0  0  0  0  0  0
   -3.1082   -0.1930    5.7879 H   0  0  0  0  0  0  0  0  0  0  0  0
   -3.8381   -0.4054    7.3814 H   0  0  0  0  0  0  0  0  0  0  0  0
   -4.0397    3.0333    1.9164 N   0  0  0  0  0  0  0  0  0  0  0  0
   -4.9329    3.1677    0.7412 C   0  0  2  0  0  0  0  0  0  0  0  0
   -4.0577    3.0657   -0.4420 C   0  0  0  0  0  0  0  0  0  0  0  0
   -2.9008    3.4775   -0.3124 O   0  0  0  0  0  0  0  0  0  0  0  0
   -5.4801    4.6029    0.7579 C   0  0  0  0  0  0  0  0  0  0  0  0
   -6.4123    4.7789   -0.4157 C   0  0  0  0  0  0  0  0  0  0  0  0
   -7.0127    6.1534   -0.3936 C   0  0  0  0  0  0  0  0  0  0  0  0
   -6.1501    7.2706   -0.5256 N   0  0  0  0  0  0  0  0  0  0  0  0
   -5.3884    7.4969   -1.7496 C   0  0  0  0  0  0  0  0  0  0  0  0
   -4.5646    8.6141   -1.7715 N   0  0  0  0  0  0  0  0  0  0  0  0
   -5.5815    6.5946   -2.6465 N   0  0  0  0  0  0  0  0  0  0  0  0
   -3.0837    3.3169    1.8472 H   0  0  0  0  0  0  0  0  0  0  0  0
   -5.7371    2.4534    0.7210 H   0  0  0  0  0  0  0  0  0  0  0  0
   -6.0113    4.8640    1.6693 H   0  0  0  0  0  0  0  0  0  0  0  0
   -4.6140    5.2496    0.6217 H   0  0  0  0  0  0  0  0  0  0  0  0
   -5.8889    4.5510   -1.3790 H   0  0  0  0  0  0  0  0  0  0  0  0
   -7.2550    4.0277   -0.3981 H   0  0  0  0  0  0  0  0  0  0  0  0
   -7.8411    6.2511   -1.1642 H   0  0  0  0  0  0  0  0  0  0  0  0
   -7.5538    6.2835    0.5917 H   0  0  0  0  0  0  0  0  0  0  0  0
   -6.0236    7.9805    0.2707 H   0  0  0  0  0  0  0  0  0  0  0  0
   -4.5520    9.3337   -1.0532 H   0  0  0  0  0  0  0  0  0  0  0  0
   -3.8921    8.7401   -2.5862 H   0  0  0  0  0  0  0  0  0  0  0  0
   -5.7607    5.9212   -3.2448 H   0  0  0  0  0  0  0  0  0  0  0  0
   -4.7877    7.1652   -3.4852 H   0  0  0  0  0  0  0  0  0  0  0  0
   -4.4119    2.5166   -1.6920 N   0  0  0  0  0  0  0  0  0  0  0  0
   -3.6430    2.4490   -2.9057 C   0  0  2  0  0  0  0  0  0  0  0  0
   -3.3148    1.0788   -3.3298 C   0  0  0  0  0  0  0  0  0  0  0  0
   -3.4476    0.1719   -2.4507 O   0  0  0  0  0  0  0  0  0  0  0  0
   -2.2448    3.0795   -2.6441 C   0  0  0  0  0  0  0  0  0  0  0  0
   -1.1875    2.9262   -4.1382 S   0  0  0  0  0  0  0  0  0  0  0  0
   -5.3626    2.1112   -1.7111 H   0  0  0  0  0  0  0  0  0  0  0  0
   -4.0887    3.0761   -3.6912 H   0  0  0  0  0  0  0  0  0  0  0  0
   -1.7965    2.4030   -1.8900 H   0  0  0  0  0  0  0  0  0  0  0  0
   -2.3227    4.0743   -2.3002 H   0  0  0  0  0  0  0  0  0  0  0  0
   -2.8628    0.7434   -4.6348 N   0  0  0  0  0  0  0  0  0  0  0  0
   -2.4761   -0.5604   -5.0690 C   0  0  2  0  0  0  0  0  0  0  0  0
   -1.4304   -0.5037   -6.1065 C   0  0  0  0  0  0  0  0  0  0  0  0
   -0.9756    0.5950   -6.5036 O   0  0  0  0  0  0  0  0  0  0  0  0
   -3.6336   -1.3660   -5.6693 C   0  0  0  0  0  0  0  0  0  0  0  0
   -4.7063   -1.5893   -4.6832 C   0  0  0  0  0  0  0  0  0  0  0  0
   -4.5981   -2.7587   -3.9202 C   0  0  0  0  0  0  0  0  0  0  0  0
   -5.7703   -0.7485   -4.4596 C   0  0  0  0  0  0  0  0  0  0  0  0
   -5.5135   -3.1048   -2.9546 C   0  0  0  0  0  0  0  0  0  0  0  0
   -6.6809   -1.1115   -3.4880 C   0  0  0  0  0  0  0  0  0  0  0  0
   -6.5824   -2.2614   -2.7314 C   0  0  0  0  0  0  0  0  0  0  0  0
   -7.5143   -2.6063   -1.7548 O   0  0  0  0  0  0  0  0  0  0  0  0
   -2.8093    1.5165   -5.3670 H   0  0  0  0  0  0  0  0  0  0  0  0
   -2.1065   -1.1762   -4.1966 H   0  0  0  0  0  0  0  0  0  0  0  0
   -3.9669   -0.8475   -6.5680 H   0  0  0  0  0  0  0  0  0  0  0  0
   -3.1684   -2.3190   -5.9770 H   0  0  0  0  0  0  0  0  0  0  0  0
   -3.7725   -3.4451   -4.0734 H   0  0  0  0  0  0  0  0  0  0  0  0
   -5.8553    0.1611   -5.0455 H   0  0  0  0  0  0  0  0  0  0  0  0
   -5.4606   -3.9927   -2.3424 H   0  0  0  0  0  0  0  0  0  0  0  0
   -7.5094   -0.4415   -3.3224 H   0  0  0  0  0  0  0  0  0  0  0  0
   -7.8360   -3.5857   -1.6668 H   0  0  0  0  0  0  0  0  0  0  0  0
   -0.8706   -1.6626   -6.7226 N   0  0  0  0  0  0  0  0  0  0  0  0
    0.1567   -1.5424   -7.7450 C   0  0  2  0  0  0  0  0  0  0  0  0
   -0.4065   -1.9055   -9.0761 C   0  0  0  0  0  0  0  0  0  0  0  0
   -1.6445   -2.2313   -9.1154 O   0  0  0  0  0  0  0  0  0  0  0  0
    1.3841   -2.3299   -7.4198 C   0  0  0  0  0  0  0  0  0  0  0  0
   -1.1999   -2.6290   -6.4380 H   0  0  0  0  0  0  0  0  0  0  0  0
    0.4373   -0.4563   -7.8225 H   0  0  0  0  0  0  0  0  0  0  0  0
    2.0231   -1.7683   -6.7033 H   0  0  0  0  0  0  0  0  0  0  0  0
    1.1909   -3.3217   -6.9830 H   0  0  0  0  0  0  0  0  0  0  0  0
    2.0026   -2.4840   -8.3345 H   0  0  0  0  0  0  0  0  0  0  0  0
    0.3356   -1.9126  -10.2756 N   0  0  0  0  0  0  0  0  0  0  0  0
   -0.1120   -2.0990  -11.1885 H   0  0  0  0  0  0  0  0  0  0  0  0
    1.3566   -1.7388  -10.2190 H   0  0  0  0  0  0  0  0  0  0  0  0
    2.9734    4.0966   -2.5510 H   0  0  0  0  0  0  0  0  0  0  0  0
    1.3125    3.0033   -0.2772 H   0  0  0  0  0  0  0  0  0  0  0  0
    3.1890    1.6915   -0.0774 H   0  0  0  0  0  0  0  0  0  0  0  0
    3.4524    2.3034   -3.0009 H   0  0  0  0  0  0  0  0  0  0  0  0
    1.4174    1.5880   -3.7691 H   0  0  0  0  0  0  0  0  0  0  0  0
    0.1493    3.2751   -1.8307 H   0  0  0  0  0  0  0  0  0  0  0  0
    3.9201    0.1912   -3.2674 H   0  0  0  0  0  0  0  0  0  0  0  0
    4.5961   -0.6350   -1.0083 H   0  0  0  0  0  0  0  0  0  0  0  0
    1.8134   -5.7604    1.6982 H   0  0  0  0  0  0  0  0  0  0  0  0
   -0.0070   -4.8081    1.2390 H   0  0  0  0  0  0  0  0  0  0  0  0
    3.5909   -3.5643    5.0424 H   0  0  0  0  0  0  0  0  0  0  0  0
    3.0314   -2.0610    6.4052 H   0  0  0  0  0  0  0  0  0  0  0  0
   -0.6914    0.2874    3.0975 H   0  0  0  0  0  0  0  0  0  0  0  0
   -0.6669    1.7195    0.7011 H   0  0  0  0  0  0  0  0  0  0  0  0
  1  2  1  0
  1 11  1  1
  1 12  1  0
  1 13  1  0
  2  3  1  0
  2  7  1  0
  3  4  1  0
  3 10  1  0
  4  5  1  0
  4 14  1  0
  5  6  1  0
  5  9  1  0
  6  7  1  0
  6 15  1  0
  7  8  1  0
  8 16  1  6
  8 17  1  0
  8171  1  0
  9 19  1  0
  9 21  1  0
 10 18  1  1
 10 20  1  0
 10118  1  0
 23 38  1  0
 38 39  1  0
 38 46  1  0
 39 40  1  0
 39 44  1  0
 39 47  1  6
 40 41  1  0
 40 48  1  1
 40 49  1  0
 41 42  1  0
 41 50  1  6
 41 51  1  0
 42 43  1  0
 42 52  1  6
 42 53  1  0
 43 54  1  1
 43 55  1  0
 44 45  1  0
 44 57  1  0
 57 58  1  0
 57 65  1  0
 58 59  1  0
 58 61  1  0
 58 66  1  6
 59 60  1  0
 59 76  1  0
 61 62  1  0
 61 67  1  1
 61 68  1  0
 62 63  1  0
 62 69  1  6
 62 70  1  0
 63 64  1  0
 63 71  1  1
 63 72  1  0
 64 73  1  6
 64 74  1  0
 64 75  1  0
 78 97  1  0
 97 98  1  0
 97104  1  0
 98 99  1  0
 98101  1  0
 98105  1  6
 99100  1  0
 99113  1  0
101102  1  0
101106  1  1
101107  1  0
102103  1  0
102108  1  1
102109  1  0
103110  1  6
103111  1  0
199207  1  0
207208  1  0
207209  1  0
 22 21  1  0
 23 22  1  0
 24 23  2  0
 25 22  1  0
 26 25  1  0
 27 26  1  0
 28 26  2  0
 29 27  2  0
 30 28  1  0
 30 29  1  0
 31 21  1  0
 22 32  1  6
 33 25  1  0
 34 25  1  0
 35 28  1  0
 36 29  1  0
 37 30  1  0
 56 43  1  0
 77 76  1  0
 78 77  1  0
 79 78  2  0
 80 77  1  0
 81 80  1  0
 82 81  2  0
 83 81  1  0
 84 82  1  0
 85 83  2  0
 86 85  1  0
 86 84  2  0
 87 86  1  0
 88 76  1  0
 77 89  1  1
 90 80  1  0
 91 80  1  0
 92 82  1  0
 93 83  1  0
 94 84  1  0
 95 85  1  0
 96 87  1  0
112103  1  0
114113  1  0
115114  1  0
116115  2  0
117114  1  0
118117  1  0
119113  1  0
114120  1  1
121117  1  0
122117  1  0
123115  1  0
124123  1  0
125124  1  0
126125  2  0
127124  1  0
128127  1  0
129127  1  0
130128  1  0
131123  1  0
124132  1  1
127133  1  1
134128  1  0
135128  1  0
136129  1  0
137129  1  0
138129  1  0
139130  1  0
140130  1  0
141130  1  0
142125  1  0
143142  1  0
144143  1  0
145144  2  0
146143  1  0
147146  1  0
148147  1  0
149148  1  0
150149  1  0
151150  1  0
152150  2  0
153142  1  0
143154  1  6
155146  1  0
156146  1  0
157147  1  0
158147  1  0
159148  1  0
160148  1  0
161149  1  0
162151  1  0
163151  1  0
164152  1  0
165152  1  0
166144  1  0
167166  1  0
168167  1  0
169168  2  0
170167  1  0
171170  1  0
172166  1  0
167173  1  6
174170  1  0
175170  1  0
176168  1  0
177176  1  0
178177  1  0
179178  2  0
180177  1  0
181180  1  0
182181  2  0
183181  1  0
184182  1  0
185183  2  0
186185  1  0
186184  2  0
187186  1  0
188176  1  0
177189  1  1
190180  1  0
191180  1  0
192182  1  0
193183  1  0
194184  1  0
195185  1  0
196187  1  0
197178  1  0
198197  1  0
199198  1  0
200199  2  0
201198  1  0
202197  1  0
198203  1  6
204201  1  0
205201  1  0
206201  1  0
  2210  1  6
  3211  1  1
  4212  1  0
  5213  1  0
  6214  1  0
  7215  1  0
  9216  1  0
 19217  1  0
 44218  1  0
 45219  1  0
 59220  1  0
 60221  1  0
 99222  1  0
100223  1  0
M  CHG  3  43   1 103   1 152   1
M  END
$$$$
BP70
     RDKit          3D

223228  0  0  0  0  0  0  0  0999 V2000
   -4.9650    4.7108    1.4689 C   0  0  2  0  0  0  0  0  0  0  0  0
   -3.6643    4.2978    2.0782 C   0  0  1  0  0  0  0  0  0  0  0  0
   -3.1861    2.9244    1.7127 C   0  0  1  0  0  0  0  0  0  0  0  0
   -1.9884    2.7349    2.6045 C   0  0  0  0  0  0  0  0  0  0  0  0
   -0.8534    3.4724    1.8487 C   0  0  0  0  0  0  0  0  0  0  0  0
   -1.1969    4.9126    1.9542 C   0  0  0  0  0  0  0  0  0  0  0  0
   -2.5719    5.3032    1.6616 C   0  0  0  0  0  0  0  0  0  0  0  0
   -2.8359    5.7235    0.2499 C   0  0  2  0  0  0  0  0  0  0  0  0
    0.4567    2.9952    2.3416 C   0  0  0  0  0  0  0  0  0  0  0  0
   -4.2010    1.8582    1.6902 C   0  0  1  0  0  0  0  0  0  0  0  0
   -5.1424    5.7917    1.7134 H   0  0  0  0  0  0  0  0  0  0  0  0
   -5.8327    4.1844    1.9653 H   0  0  0  0  0  0  0  0  0  0  0  0
   -5.0711    4.4702    0.3952 H   0  0  0  0  0  0  0  0  0  0  0  0
   -2.1899    3.2703    3.5649 H   0  0  0  0  0  0  0  0  0  0  0  0
   -0.4684    5.5002    1.3509 H   0  0  0  0  0  0  0  0  0  0  0  0
   -2.2509    6.6980    0.1123 H   0  0  0  0  0  0  0  0  0  0  0  0
   -3.9037    6.1086    0.1439 H   0  0  0  0  0  0  0  0  0  0  0  0
   -4.2307    1.1924    2.5722 H   0  0  0  0  0  0  0  0  0  0  0  0
    0.4257    3.0502    3.7380 O   0  0  0  0  0  0  0  0  0  0  0  0
   -5.2165    2.3054    1.5379 H   0  0  0  0  0  0  0  0  0  0  0  0
    1.5836    3.5229    1.7398 N   0  0  0  0  0  0  0  0  0  0  0  0
    2.8595    3.0989    2.1532 C   0  0  2  0  0  0  0  0  0  0  0  0
    3.4813    1.8738    1.6589 C   0  0  0  0  0  0  0  0  0  0  0  0
    3.3630    1.4983    0.4878 O   0  0  0  0  0  0  0  0  0  0  0  0
    3.2825    3.3472    3.5669 C   0  0  0  0  0  0  0  0  0  0  0  0
    3.2571    4.8231    3.8251 C   0  0  0  0  0  0  0  0  0  0  0  0
    2.2331    5.5647    4.2932 N   0  0  0  0  0  0  0  0  0  0  0  0
    4.2815    5.7354    3.6121 C   0  0  0  0  0  0  0  0  0  0  0  0
    2.6307    6.8635    4.3557 C   0  0  0  0  0  0  0  0  0  0  0  0
    3.9097    6.9680    3.9293 N   0  0  0  0  0  0  0  0  0  0  0  0
    1.4943    4.5512    1.6351 H   0  0  0  0  0  0  0  0  0  0  0  0
    3.5242    3.9198    1.6227 H   0  0  0  0  0  0  0  0  0  0  0  0
    4.4014    3.1279    3.5753 H   0  0  0  0  0  0  0  0  0  0  0  0
    2.8518    2.7350    4.3342 H   0  0  0  0  0  0  0  0  0  0  0  0
    5.2692    5.4931    3.2326 H   0  0  0  0  0  0  0  0  0  0  0  0
    2.0735    7.7255    4.6843 H   0  0  0  0  0  0  0  0  0  0  0  0
    4.4741    7.8706    3.8704 H   0  0  0  0  0  0  0  0  0  0  0  0
    4.2531    1.0119    2.4832 N   0  0  0  0  0  0  0  0  0  0  0  0
    5.0942   -0.0928    2.1479 C   0  0  1  0  0  0  0  0  0  0  0  0
    6.5382    0.2605    2.5337 C   0  0  2  0  0  0  0  0  0  0  0  0
    6.7157    0.5569    3.9890 C   0  0  2  0  0  0  0  0  0  0  0  0
    8.2078    0.8986    4.1520 C   0  0  1  0  0  0  0  0  0  0  0  0
    8.4512    1.2076    5.5809 N   0  0  2  0  0  0  0  0  0  0  0  0
    4.7956   -1.4834    2.3040 C   0  0  0  0  0  0  0  0  0  0  0  0
    6.1126   -2.1248    2.0756 O   0  0  0  0  0  0  0  0  0  0  0  0
    4.1628    1.2172    3.5002 H   0  0  0  0  0  0  0  0  0  0  0  0
    5.1701    0.0607    0.9901 H   0  0  0  0  0  0  0  0  0  0  0  0
    6.7861    1.1946    1.9899 H   0  0  0  0  0  0  0  0  0  0  0  0
    7.2838   -0.4759    2.2245 H   0  0  0  0  0  0  0  0  0  0  0  0
    6.5377   -0.2684    4.6759 H   0  0  0  0  0  0  0  0  0  0  0  0
    6.1969    1.4434    4.3609 H   0  0  0  0  0  0  0  0  0  0  0  0
    8.7854   -0.0329    3.9411 H   0  0  0  0  0  0  0  0  0  0  0  0
    8.5009    1.7336    3.5009 H   0  0  0  0  0  0  0  0  0  0  0  0
    9.3365    1.8121    5.6516 H   0  0  0  0  0  0  0  0  0  0  0  0
    8.6006    0.3031    6.1142 H   0  0  0  0  0  0  0  0  0  0  0  0
    7.6160    1.7380    5.9789 H   0  0  0  0  0  0  0  0  0  0  0  0
    3.9637   -2.3722    1.7196 N   0  0  0  0  0  0  0  0  0  0  0  0
    3.6992   -3.0105    0.5816 C   0  0  2  0  0  0  0  0  0  0  0  0
    2.8402   -4.2423    0.7113 C   0  0  0  0  0  0  0  0  0  0  0  0
    2.7472   -4.7668   -0.6184 O   0  0  0  0  0  0  0  0  0  0  0  0
    4.6550   -3.2686   -0.5501 C   0  0  2  0  0  0  0  0  0  0  0  0
    5.1963   -2.1096   -1.3052 C   0  0  1  0  0  0  0  0  0  0  0  0
    6.1400   -2.5308   -2.4254 C   0  0  1  0  0  0  0  0  0  0  0  0
    6.5990   -1.2650   -3.1141 C   0  0  2  0  0  0  0  0  0  0  0  0
    3.2683   -2.7000    2.4810 H   0  0  0  0  0  0  0  0  0  0  0  0
    2.9488   -2.3153   -0.0155 H   0  0  0  0  0  0  0  0  0  0  0  0
    4.1678   -3.9081   -1.3555 H   0  0  0  0  0  0  0  0  0  0  0  0
    5.4920   -3.9455   -0.2321 H   0  0  0  0  0  0  0  0  0  0  0  0
    4.2840   -1.6269   -1.8072 H   0  0  0  0  0  0  0  0  0  0  0  0
    5.6380   -1.3304   -0.7306 H   0  0  0  0  0  0  0  0  0  0  0  0
    7.0342   -2.9581   -1.9173 H   0  0  0  0  0  0  0  0  0  0  0  0
    5.7439   -3.2843   -3.0944 H   0  0  0  0  0  0  0  0  0  0  0  0
    5.7063   -0.5760   -3.2075 H   0  0  0  0  0  0  0  0  0  0  0  0
    6.9960   -1.4661   -4.1323 H   0  0  0  0  0  0  0  0  0  0  0  0
    7.3169   -0.7282   -2.4715 H   0  0  0  0  0  0  0  0  0  0  0  0
    1.5135   -4.1947    1.1625 N   0  0  0  0  0  0  0  0  0  0  0  0
    0.8578   -5.4609    0.8559 C   0  0  2  0  0  0  0  0  0  0  0  0
   -0.5460   -5.4786    0.5490 C   0  0  0  0  0  0  0  0  0  0  0  0
   -1.0553   -6.5255    0.0800 O   0  0  0  0  0  0  0  0  0  0  0  0
    1.2423   -6.3556    2.0520 C   0  0  0  0  0  0  0  0  0  0  0  0
    0.6941   -7.7180    2.0013 C   0  0  0  0  0  0  0  0  0  0  0  0
   -0.4901   -8.0896    2.5938 C   0  0  0  0  0  0  0  0  0  0  0  0
    1.3941   -8.7247    1.3380 C   0  0  0  0  0  0  0  0  0  0  0  0
   -1.0074   -9.3611    2.5685 C   0  0  0  0  0  0  0  0  0  0  0  0
    0.8967  -10.0293    1.2943 C   0  0  0  0  0  0  0  0  0  0  0  0
   -0.2990  -10.3700    1.9003 C   0  0  0  0  0  0  0  0  0  0  0  0
   -0.8064  -11.6719    1.8634 O   0  0  0  0  0  0  0  0  0  0  0  0
    0.9785   -3.4268    0.8391 H   0  0  0  0  0  0  0  0  0  0  0  0
    1.4534   -5.9220    0.0119 H   0  0  0  0  0  0  0  0  0  0  0  0
    0.8474   -5.8617    2.9902 H   0  0  0  0  0  0  0  0  0  0  0  0
    2.3464   -6.3453    2.2144 H   0  0  0  0  0  0  0  0  0  0  0  0
   -1.0333   -7.3093    3.1140 H   0  0  0  0  0  0  0  0  0  0  0  0
    2.3430   -8.5064    0.8421 H   0  0  0  0  0  0  0  0  0  0  0  0
   -1.9330   -9.6518    3.0342 H   0  0  0  0  0  0  0  0  0  0  0  0
    1.4261  -10.8298    0.7854 H   0  0  0  0  0  0  0  0  0  0  0  0
   -0.8863  -12.1611    2.7506 H   0  0  0  0  0  0  0  0  0  0  0  0
   -1.5251   -4.4179    0.7101 N   0  0  0  0  0  0  0  0  0  0  0  0
   -2.8762   -4.5656    0.2415 C   0  0  2  0  0  0  0  0  0  0  0  0
   -3.8348   -3.4529    0.2438 C   0  0  0  0  0  0  0  0  0  0  0  0
   -4.0575   -2.9021    1.5015 O   0  0  0  0  0  0  0  0  0  0  0  0
   -3.5664   -5.7766    0.8873 C   0  0  2  0  0  0  0  0  0  0  0  0
   -3.6516   -5.7757    2.3643 C   0  0  1  0  0  0  0  0  0  0  0  0
   -4.3145   -7.0490    2.8257 N   0  0  2  0  0  0  0  0  0  0  0  0
   -1.1255   -3.6111    1.1919 H   0  0  0  0  0  0  0  0  0  0  0  0
   -2.8572   -4.9686   -0.8440 H   0  0  0  0  0  0  0  0  0  0  0  0
   -3.2995   -6.7356    0.4269 H   0  0  0  0  0  0  0  0  0  0  0  0
   -4.6356   -5.6566    0.5216 H   0  0  0  0  0  0  0  0  0  0  0  0
   -2.6953   -5.6514    2.8927 H   0  0  0  0  0  0  0  0  0  0  0  0
   -4.3118   -4.9917    2.8031 H   0  0  0  0  0  0  0  0  0  0  0  0
   -4.7519   -6.8841    3.7741 H   0  0  0  0  0  0  0  0  0  0  0  0
   -3.5631   -7.7921    2.8470 H   0  0  0  0  0  0  0  0  0  0  0  0
   -5.0622   -7.2866    2.1107 H   0  0  0  0  0  0  0  0  0  0  0  0
   -3.8938   -2.5218   -0.8491 N   0  0  0  0  0  0  0  0  0  0  0  0
   -4.9717   -1.5900   -0.8604 C   0  0  2  0  0  0  0  0  0  0  0  0
   -5.0417   -0.9786   -2.2523 C   0  0  0  0  0  0  0  0  0  0  0  0
   -4.4832   -1.4766   -3.2342 O   0  0  0  0  0  0  0  0  0  0  0  0
   -5.1164   -0.5532    0.1688 C   0  0  0  0  0  0  0  0  0  0  0  0
   -3.9672    0.7948    0.1851 S   0  0  0  0  0  0  0  0  0  0  0  0
   -3.8451   -3.0669   -1.7351 H   0  0  0  0  0  0  0  0  0  0  0  0
   -5.9268   -2.2111   -0.7911 H   0  0  0  0  0  0  0  0  0  0  0  0
   -5.2234   -1.0031    1.1776 H   0  0  0  0  0  0  0  0  0  0  0  0
   -6.1617   -0.1099    0.0247 H   0  0  0  0  0  0  0  0  0  0  0  0
   -5.7539    0.2074   -2.4635 N   0  0  0  0  0  0  0  0  0  0  0  0
   -6.0056    0.8919   -3.7620 C   0  0  2  0  0  0  0  0  0  0  0  0
   -4.7787    1.5803   -4.1224 C   0  0  0  0  0  0  0  0  0  0  0  0
   -3.7401    1.1596   -3.4449 O   0  0  0  0  0  0  0  0  0  0  0  0
   -7.3157    1.5383   -3.7621 C   0  0  2  0  0  0  0  0  0  0  0  0
   -7.7480    2.2569   -4.9873 C   0  0  0  0  0  0  0  0  0  0  0  0
   -7.5673    2.3856   -2.5130 C   0  0  0  0  0  0  0  0  0  0  0  0
   -7.7929    1.3898   -6.2341 C   0  0  0  0  0  0  0  0  0  0  0  0
   -6.1488    0.6854   -1.6603 H   0  0  0  0  0  0  0  0  0  0  0  0
   -6.0691    0.0380   -4.5494 H   0  0  0  0  0  0  0  0  0  0  0  0
   -8.0868    0.6936   -3.6452 H   0  0  0  0  0  0  0  0  0  0  0  0
   -8.8563    2.5198   -4.7930 H   0  0  0  0  0  0  0  0  0  0  0  0
   -7.2148    3.1800   -5.2250 H   0  0  0  0  0  0  0  0  0  0  0  0
   -6.6794    2.9338   -2.2081 H   0  0  0  0  0  0  0  0  0  0  0  0
   -7.9016    1.6980   -1.7147 H   0  0  0  0  0  0  0  0  0  0  0  0
   -8.3850    3.0857   -2.7655 H   0  0  0  0  0  0  0  0  0  0  0  0
   -8.2856    0.4460   -5.9394 H   0  0  0  0  0  0  0  0  0  0  0  0
   -8.2823    1.9178   -7.0783 H   0  0  0  0  0  0  0  0  0  0  0  0
   -6.7678    1.1183   -6.5882 H   0  0  0  0  0  0  0  0  0  0  0  0
   -4.4224    2.5980   -5.0120 N   0  0  0  0  0  0  0  0  0  0  0  0
   -2.9832    2.8764   -5.2434 C   0  0  2  0  0  0  0  0  0  0  0  0
   -2.3528    3.7133   -4.1926 C   0  0  0  0  0  0  0  0  0  0  0  0
   -2.6777    4.8361   -3.8305 O   0  0  0  0  0  0  0  0  0  0  0  0
   -2.7644    3.3832   -6.6018 C   0  0  0  0  0  0  0  0  0  0  0  0
   -1.4237    3.7353   -7.0948 C   0  0  0  0  0  0  0  0  0  0  0  0
   -0.6684    4.8346   -6.4560 C   0  0  0  0  0  0  0  0  0  0  0  0
    0.6045    4.9778   -7.1797 N   0  0  0  0  0  0  0  0  0  0  0  0
    1.4933    5.9901   -6.7348 C   0  0  0  0  0  0  0  0  0  0  0  0
    2.7577    6.2420   -7.3492 N   0  0  0  0  0  0  0  0  0  0  0  0
    1.1937    6.7529   -5.7329 N   0  0  0  0  0  0  0  0  0  0  0  0
   -5.0642    3.1601   -5.5123 H   0  0  0  0  0  0  0  0  0  0  0  0
   -2.5337    1.8272   -5.1691 H   0  0  0  0  0  0  0  0  0  0  0  0
   -3.2854    2.7066   -7.3754 H   0  0  0  0  0  0  0  0  0  0  0  0
   -3.3947    4.3381   -6.7459 H   0  0  0  0  0  0  0  0  0  0  0  0
   -0.7610    2.8243   -7.1275 H   0  0  0  0  0  0  0  0  0  0  0  0
   -1.5027    4.0129   -8.1954 H   0  0  0  0  0  0  0  0  0  0  0  0
   -0.5028    4.8065   -5.3913 H   0  0  0  0  0  0  0  0  0  0  0  0
   -1.1980    5.8148   -6.6538 H   0  0  0  0  0  0  0  0  0  0  0  0
    0.8545    4.3723   -7.9862 H   0  0  0  0  0  0  0  0  0  0  0  0
    2.8448    6.1387   -8.3881 H   0  0  0  0  0  0  0  0  0  0  0  0
    3.5629    6.5235   -6.7561 H   0  0  0  0  0  0  0  0  0  0  0  0
    1.8546    7.5198   -5.3917 H   0  0  0  0  0  0  0  0  0  0  0  0
    0.3038    6.6660   -5.1994 H   0  0  0  0  0  0  0  0  0  0  0  0
   -1.2496    3.1235   -3.5172 N   0  0  0  0  0  0  0  0  0  0  0  0
   -0.3143    3.5891   -2.5624 C   0  0  2  0  0  0  0  0  0  0  0  0
    0.4262    2.4336   -2.0475 C   0  0  0  0  0  0  0  0  0  0  0  0
    1.5826    2.6064   -1.6423 O   0  0  0  0  0  0  0  0  0  0  0  0
   -0.6971    4.6738   -1.6307 C   0  0  0  0  0  0  0  0  0  0  0  0
   -2.3659    4.6331   -1.0506 S   0  0  0  0  0  0  0  0  0  0  0  0
   -1.1108    2.1106   -3.8471 H   0  0  0  0  0  0  0  0  0  0  0  0
    0.4886    4.1714   -3.2333 H   0  0  0  0  0  0  0  0  0  0  0  0
    0.0109    4.6409   -0.7382 H   0  0  0  0  0  0  0  0  0  0  0  0
   -0.4220    5.6898   -2.0724 H   0  0  0  0  0  0  0  0  0  0  0  0
   -0.2221    1.1465   -2.0508 N   0  0  0  0  0  0  0  0  0  0  0  0
    0.4155   -0.0839   -1.6957 C   0  0  2  0  0  0  0  0  0  0  0  0
    0.2104   -0.9619   -2.9735 C   0  0  0  0  0  0  0  0  0  0  0  0
   -0.4593   -0.5328   -3.9180 O   0  0  0  0  0  0  0  0  0  0  0  0
    0.0401   -0.9619   -0.6373 C   0  0  0  0  0  0  0  0  0  0  0  0
   -0.0429   -0.8019    0.7811 C   0  0  0  0  0  0  0  0  0  0  0  0
    1.1502   -0.7146    1.5256 C   0  0  0  0  0  0  0  0  0  0  0  0
   -1.1816   -0.8973    1.5698 C   0  0  0  0  0  0  0  0  0  0  0  0
    1.2025   -0.7246    2.8811 C   0  0  0  0  0  0  0  0  0  0  0  0
   -1.1530   -0.9068    2.9392 C   0  0  0  0  0  0  0  0  0  0  0  0
    0.0395   -0.8215    3.6119 C   0  0  0  0  0  0  0  0  0  0  0  0
    0.1666   -0.8222    4.9894 O   0  0  0  0  0  0  0  0  0  0  0  0
   -1.2544    1.0528   -2.3105 H   0  0  0  0  0  0  0  0  0  0  0  0
    1.5360    0.0347   -1.7169 H   0  0  0  0  0  0  0  0  0  0  0  0
    0.7146   -1.8911   -0.7540 H   0  0  0  0  0  0  0  0  0  0  0  0
   -1.0251   -1.3397   -0.9329 H   0  0  0  0  0  0  0  0  0  0  0  0
    2.0292   -0.6161    0.9723 H   0  0  0  0  0  0  0  0  0  0  0  0
   -2.1165   -1.0095    1.0696 H   0  0  0  0  0  0  0  0  0  0  0  0
    2.1604   -0.6569    3.3604 H   0  0  0  0  0  0  0  0  0  0  0  0
   -2.0499   -0.9768    3.5390 H   0  0  0  0  0  0  0  0  0  0  0  0
    0.1418   -1.7572    5.4288 H   0  0  0  0  0  0  0  0  0  0  0  0
    0.7828   -2.2504   -3.0497 N   0  0  0  0  0  0  0  0  0  0  0  0
    0.5007   -3.0155   -4.2727 C   0  0  2  0  0  0  0  0  0  0  0  0
   -0.1385   -4.3233   -3.8805 C   0  0  0  0  0  0  0  0  0  0  0  0
   -0.3749   -4.6164   -2.6835 O   0  0  0  0  0  0  0  0  0  0  0  0
    1.7222   -3.3039   -5.0768 C   0  0  0  0  0  0  0  0  0  0  0  0
    1.3722   -2.7060   -2.3592 H   0  0  0  0  0  0  0  0  0  0  0  0
   -0.2097   -2.4805   -4.9451 H   0  0  0  0  0  0  0  0  0  0  0  0
    2.4334   -3.9556   -4.5618 H   0  0  0  0  0  0  0  0  0  0  0  0
    2.1947   -2.3569   -5.4639 H   0  0  0  0  0  0  0  0  0  0  0  0
    1.4281   -3.8538   -6.0237 H   0  0  0  0  0  0  0  0  0  0  0  0
   -0.4872   -5.2587   -4.9252 N   0  0  0  0  0  0  0  0  0  0  0  0
   -0.3014   -5.0482   -5.9270 H   0  0  0  0  0  0  0  0  0  0  0  0
   -0.9370   -6.1627   -4.6453 H   0  0  0  0  0  0  0  0  0  0  0  0
   -3.7425    4.3613    3.1711 H   0  0  0  0  0  0  0  0  0  0  0  0
   -2.7467    2.9310    0.6615 H   0  0  0  0  0  0  0  0  0  0  0  0
   -1.7489    1.7300    2.8571 H   0  0  0  0  0  0  0  0  0  0  0  0
   -0.9730    3.1521    0.7841 H   0  0  0  0  0  0  0  0  0  0  0  0
   -1.0322    5.1976    3.0596 H   0  0  0  0  0  0  0  0  0  0  0  0
   -2.8340    6.2182    2.2808 H   0  0  0  0  0  0  0  0  0  0  0  0
    0.4465    1.8740    2.1401 H   0  0  0  0  0  0  0  0  0  0  0  0
   -0.0270    3.8127    4.1192 H   0  0  0  0  0  0  0  0  0  0  0  0
    4.7654   -1.6620    3.4343 H   0  0  0  0  0  0  0  0  0  0  0  0
    6.4521   -1.9532    1.2233 H   0  0  0  0  0  0  0  0  0  0  0  0
    3.4343   -4.9688    1.2966 H   0  0  0  0  0  0  0  0  0  0  0  0
    3.2935   -5.5902   -0.6936 H   0  0  0  0  0  0  0  0  0  0  0  0
   -4.8653   -3.9942    0.0730 H   0  0  0  0  0  0  0  0  0  0  0  0
   -4.9521   -3.0618    1.8740 H   0  0  0  0  0  0  0  0  0  0  0  0
  1  2  1  0
  1 11  1  6
  1 12  1  0
  1 13  1  0
  2  3  1  0
  2  7  1  0
  3  4  1  0
  3 10  1  0
  4  5  1  0
  4 14  1  0
  5  6  1  0
  5  9  1  0
  6  7  1  0
  6 15  1  0
  7  8  1  0
  8 16  1  6
  8 17  1  0
  8171  1  0
  9 19  1  0
  9 21  1  0
 10 18  1  1
 10 20  1  0
 10118  1  0
 23 38  1  0
 38 39  1  0
 38 46  1  0
 39 40  1  0
 39 44  1  0
 39 47  1  6
 40 41  1  0
 40 48  1  6
 40 49  1  0
 41 42  1  0
 41 50  1  1
 41 51  1  0
 42 43  1  0
 42 52  1  6
 42 53  1  0
 43 54  1  6
 43 55  1  0
 44 45  1  0
 44 57  1  0
 57 58  1  0
 57 65  1  0
 58 59  1  0
 58 61  1  0
 58 66  1  6
 59 60  1  0
 59 76  1  0
 61 62  1  0
 61 67  1  6
 61 68  1  0
 62 63  1  0
 62 69  1  6
 62 70  1  0
 63 64  1  0
 63 71  1  1
 63 72  1  0
 64 73  1  6
 64 74  1  0
 64 75  1  0
 78 97  1  0
 97 98  1  0
 97104  1  0
 98 99  1  0
 98101  1  0
 98105  1  6
 99100  1  0
 99113  1  0
101102  1  0
101106  1  6
101107  1  0
102103  1  0
102108  1  1
102109  1  0
103110  1  1
103111  1  0
199207  1  0
207208  1  0
207209  1  0
 22 21  1  0
 23 22  1  0
 24 23  2  0
 25 22  1  0
 26 25  1  0
 27 26  1  0
 28 26  2  0
 29 27  2  0
 30 28  1  0
 30 29  1  0
 31 21  1  0
 22 32  1  6
 33 25  1  0
 34 25  1  0
 35 28  1  0
 36 29  1  0
 37 30  1  0
 56 43  1  0
 77 76  1  0
 78 77  1  0
 79 78  2  0
 80 77  1  0
 81 80  1  0
 82 81  2  0
 83 81  1  0
 84 82  1  0
 85 83  2  0
 86 85  1  0
 86 84  2  0
 87 86  1  0
 88 76  1  0
 77 89  1  6
 90 80  1  0
 91 80  1  0
 92 82  1  0
 93 83  1  0
 94 84  1  0
 95 85  1  0
 96 87  1  0
112103  1  0
114113  1  0
115114  1  0
116115  2  0
117114  1  0
118117  1  0
119113  1  0
114120  1  6
121117  1  0
122117  1  0
123115  1  0
124123  1  0
125124  1  0
126125  2  0
127124  1  0
128127  1  0
129127  1  0
130128  1  0
131123  1  0
124132  1  6
127133  1  1
134128  1  0
135128  1  0
136129  1  0
137129  1  0
138129  1  0
139130  1  0
140130  1  0
141130  1  0
142125  1  0
143142  1  0
144143  1  0
145144  2  0
146143  1  0
147146  1  0
148147  1  0
149148  1  0
150149  1  0
151150  1  0
152150  2  0
153142  1  0
143154  1  6
155146  1  0
156146  1  0
157147  1  0
158147  1  0
159148  1  0
160148  1  0
161149  1  0
162151  1  0
163151  1  0
164152  1  0
165152  1  0
166144  1  0
167166  1  0
168167  1  0
169168  2  0
170167  1  0
171170  1  0
172166  1  0
167173  1  6
174170  1  0
175170  1  0
176168  1  0
177176  1  0
178177  1  0
179178  2  0
180177  1  0
181180  1  0
182181  2  0
183181  1  0
184182  1  0
185183  2  0
186185  1  0
186184  2  0
187186  1  0
188176  1  0
177189  1  1
190180  1  0
191180  1  0
192182  1  0
193183  1  0
194184  1  0
195185  1  0
196187  1  0
197178  1  0
198197  1  0
199198  1  0
200199  2  0
201198  1  0
202197  1  0
198203  1  6
204201  1  0
205201  1  0
206201  1  0
  2210  1  1
  3211  1  6
  4212  1  0
  5213  1  0
  6214  1  0
  7215  1  0
  9216  1  0
 19217  1  0
 44218  1  0
 45219  1  0
 59220  1  0
 60221  1  0
 99222  1  0
100223  1  0
M  CHG  3  43   1 103   1 152   1
M  END
$$$$
BP70
     RDKit          3D

223228  0  0  0  0  0  0  0  0999 V2000
    3.3433   -0.6359   -5.0224 C   0  0  2  0  0  0  0  0  0  0  0  0
    2.2586    0.1881   -4.4078 C   0  0  1  0  0  0  0  0  0  0  0  0
    1.1255    0.4327   -5.3428 C   0  0  1  0  0  0  0  0  0  0  0  0
    0.0091   -0.5078   -5.2780 C   0  0  0  0  0  0  0  0  0  0  0  0
    0.1612   -1.7308   -4.4094 C   0  0  0  0  0  0  0  0  0  0  0  0
    1.1033   -1.6366   -3.2757 C   0  0  0  0  0  0  0  0  0  0  0  0
    1.8244   -0.3616   -3.0729 C   0  0  0  0  0  0  0  0  0  0  0  0
    3.1103   -0.5843   -2.2724 C   0  0  2  0  0  0  0  0  0  0  0  0
   -1.2696   -2.2210   -4.0109 C   0  0  0  0  0  0  0  0  0  0  0  0
    0.7051    1.9023   -5.3460 C   0  0  1  0  0  0  0  0  0  0  0  0
    3.4833   -1.6332   -4.5591 H   0  0  0  0  0  0  0  0  0  0  0  0
    4.3530   -0.1355   -4.9267 H   0  0  0  0  0  0  0  0  0  0  0  0
    3.2135   -0.7694   -6.1057 H   0  0  0  0  0  0  0  0  0  0  0  0
   -0.3561   -0.8301   -6.3005 H   0  0  0  0  0  0  0  0  0  0  0  0
    1.8130   -2.4982   -3.3158 H   0  0  0  0  0  0  0  0  0  0  0  0
    4.0101   -0.5238   -2.9083 H   0  0  0  0  0  0  0  0  0  0  0  0
    3.1311   -1.5738   -1.7710 H   0  0  0  0  0  0  0  0  0  0  0  0
    1.4524    2.5427   -5.9005 H   0  0  0  0  0  0  0  0  0  0  0  0
   -1.7811   -1.4710   -3.0092 O   0  0  0  0  0  0  0  0  0  0  0  0
   -0.2346    2.0576   -5.9245 H   0  0  0  0  0  0  0  0  0  0  0  0
   -2.0033   -2.3166   -5.2276 N   0  0  0  0  0  0  0  0  0  0  0  0
   -3.4440   -2.2180   -5.0929 C   0  0  2  0  0  0  0  0  0  0  0  0
   -3.9327   -3.2759   -4.2035 C   0  0  0  0  0  0  0  0  0  0  0  0
   -3.1200   -4.1320   -3.8126 O   0  0  0  0  0  0  0  0  0  0  0  0
   -4.0863   -2.2271   -6.4392 C   0  0  0  0  0  0  0  0  0  0  0  0
   -5.5364   -2.1179   -6.5307 C   0  0  0  0  0  0  0  0  0  0  0  0
   -6.1668   -0.9038   -6.5587 N   0  0  0  0  0  0  0  0  0  0  0  0
   -6.5306   -3.0900   -6.6794 C   0  0  0  0  0  0  0  0  0  0  0  0
   -7.4776   -1.1282   -6.7173 C   0  0  0  0  0  0  0  0  0  0  0  0
   -7.6950   -2.4420   -6.7882 N   0  0  0  0  0  0  0  0  0  0  0  0
   -1.7017   -3.0595   -5.8472 H   0  0  0  0  0  0  0  0  0  0  0  0
   -3.6972   -1.2088   -4.6331 H   0  0  0  0  0  0  0  0  0  0  0  0
   -3.5964   -1.4005   -7.0426 H   0  0  0  0  0  0  0  0  0  0  0  0
   -3.8143   -3.1680   -7.0295 H   0  0  0  0  0  0  0  0  0  0  0  0
   -6.3439   -4.1396   -6.6967 H   0  0  0  0  0  0  0  0  0  0  0  0
   -8.2284   -0.3322   -6.7712 H   0  0  0  0  0  0  0  0  0  0  0  0
   -8.6669   -2.8399   -6.9050 H   0  0  0  0  0  0  0  0  0  0  0  0
   -5.2531   -3.4337   -3.7244 N   0  0  0  0  0  0  0  0  0  0  0  0
   -5.7760   -4.3573   -2.7553 C   0  0  1  0  0  0  0  0  0  0  0  0
   -7.2125   -4.6845   -3.0481 C   0  0  2  0  0  0  0  0  0  0  0  0
   -8.1390   -3.4992   -3.0146 C   0  0  2  0  0  0  0  0  0  0  0  0
   -8.1474   -2.8214   -1.6638 C   0  0  1  0  0  0  0  0  0  0  0  0
   -9.0817   -1.6482   -1.7266 N   0  0  2  0  0  0  0  0  0  0  0  0
   -5.0239   -5.6592   -2.5675 C   0  0  0  0  0  0  0  0  0  0  0  0
   -5.0389   -6.3394   -3.8364 O   0  0  0  0  0  0  0  0  0  0  0  0
   -5.9177   -2.7405   -4.1136 H   0  0  0  0  0  0  0  0  0  0  0  0
   -5.6994   -3.8143   -1.7803 H   0  0  0  0  0  0  0  0  0  0  0  0
   -7.5344   -5.4504   -2.2892 H   0  0  0  0  0  0  0  0  0  0  0  0
   -7.3207   -5.2140   -4.0231 H   0  0  0  0  0  0  0  0  0  0  0  0
   -9.1664   -3.9383   -3.2477 H   0  0  0  0  0  0  0  0  0  0  0  0
   -7.8889   -2.7704   -3.8104 H   0  0  0  0  0  0  0  0  0  0  0  0
   -8.5491   -3.5193   -0.8990 H   0  0  0  0  0  0  0  0  0  0  0  0
   -7.1624   -2.4916   -1.3460 H   0  0  0  0  0  0  0  0  0  0  0  0
   -8.7990   -1.0379   -2.5362 H   0  0  0  0  0  0  0  0  0  0  0  0
   -9.0148   -1.1344   -0.7984 H   0  0  0  0  0  0  0  0  0  0  0  0
  -10.0654   -2.0445   -1.8348 H   0  0  0  0  0  0  0  0  0  0  0  0
   -3.7875   -5.6839   -1.9899 N   0  0  0  0  0  0  0  0  0  0  0  0
   -3.2922   -5.5344   -0.7293 C   0  0  2  0  0  0  0  0  0  0  0  0
   -3.8556   -4.3975    0.0860 C   0  0  0  0  0  0  0  0  0  0  0  0
   -5.1722   -4.6722    0.4260 O   0  0  0  0  0  0  0  0  0  0  0  0
   -1.7437   -5.4016   -0.7016 C   0  0  2  0  0  0  0  0  0  0  0  0
   -1.0467   -6.5821   -1.2753 C   0  0  1  0  0  0  0  0  0  0  0  0
    0.4673   -6.3253   -1.1668 C   0  0  1  0  0  0  0  0  0  0  0  0
    0.8427   -6.1407    0.2938 C   0  0  2  0  0  0  0  0  0  0  0  0
   -3.1971   -6.4562   -2.5225 H   0  0  0  0  0  0  0  0  0  0  0  0
   -3.4413   -6.5034   -0.1455 H   0  0  0  0  0  0  0  0  0  0  0  0
   -1.4301   -5.2542    0.3526 H   0  0  0  0  0  0  0  0  0  0  0  0
   -1.5151   -4.5044   -1.2946 H   0  0  0  0  0  0  0  0  0  0  0  0
   -1.2966   -7.5317   -0.7647 H   0  0  0  0  0  0  0  0  0  0  0  0
   -1.2311   -6.6012   -2.3757 H   0  0  0  0  0  0  0  0  0  0  0  0
    1.0469   -7.0893   -1.6736 H   0  0  0  0  0  0  0  0  0  0  0  0
    0.5903   -5.3103   -1.6533 H   0  0  0  0  0  0  0  0  0  0  0  0
    0.5736   -5.0783    0.5543 H   0  0  0  0  0  0  0  0  0  0  0  0
    1.9473   -6.2327    0.3662 H   0  0  0  0  0  0  0  0  0  0  0  0
    0.3073   -6.8665    0.9520 H   0  0  0  0  0  0  0  0  0  0  0  0
   -3.0036   -4.1566    1.2099 N   0  0  0  0  0  0  0  0  0  0  0  0
   -3.2390   -2.9038    1.9050 C   0  0  2  0  0  0  0  0  0  0  0  0
   -3.0674   -1.7052    1.0755 C   0  0  0  0  0  0  0  0  0  0  0  0
   -2.8513   -1.6893   -0.1583 O   0  0  0  0  0  0  0  0  0  0  0  0
   -2.6002   -2.9233    3.2426 C   0  0  0  0  0  0  0  0  0  0  0  0
   -1.1493   -3.1297    3.2796 C   0  0  0  0  0  0  0  0  0  0  0  0
   -0.2070   -2.1327    3.2411 C   0  0  0  0  0  0  0  0  0  0  0  0
   -0.6932   -4.4408    3.3600 C   0  0  0  0  0  0  0  0  0  0  0  0
    1.1350   -2.4615    3.2838 C   0  0  0  0  0  0  0  0  0  0  0  0
    0.6498   -4.7586    3.4029 C   0  0  0  0  0  0  0  0  0  0  0  0
    1.5929   -3.7534    3.3647 C   0  0  0  0  0  0  0  0  0  0  0  0
    2.9650   -4.0018    3.4078 O   0  0  0  0  0  0  0  0  0  0  0  0
   -3.2261   -4.8991    1.9183 H   0  0  0  0  0  0  0  0  0  0  0  0
   -4.3721   -2.9367    2.1131 H   0  0  0  0  0  0  0  0  0  0  0  0
   -2.7939   -1.9885    3.8340 H   0  0  0  0  0  0  0  0  0  0  0  0
   -3.0666   -3.7229    3.8961 H   0  0  0  0  0  0  0  0  0  0  0  0
   -0.5238   -1.0949    3.1780 H   0  0  0  0  0  0  0  0  0  0  0  0
   -1.3966   -5.2783    3.3963 H   0  0  0  0  0  0  0  0  0  0  0  0
    1.8364   -1.6187    3.2435 H   0  0  0  0  0  0  0  0  0  0  0  0
    1.0154   -5.7756    3.4614 H   0  0  0  0  0  0  0  0  0  0  0  0
    3.3518   -4.9135    3.2576 H   0  0  0  0  0  0  0  0  0  0  0  0
   -3.1151   -0.3416    1.6002 N   0  0  0  0  0  0  0  0  0  0  0  0
   -3.1121    0.7922    0.6919 C   0  0  2  0  0  0  0  0  0  0  0  0
   -1.7538    1.1806    0.1769 C   0  0  0  0  0  0  0  0  0  0  0  0
   -1.0851    0.2195   -0.5188 O   0  0  0  0  0  0  0  0  0  0  0  0
   -3.9012    1.9132    1.2184 C   0  0  2  0  0  0  0  0  0  0  0  0
   -5.3501    1.6425    1.4614 C   0  0  1  0  0  0  0  0  0  0  0  0
   -5.6156    0.5954    2.4491 N   0  0  2  0  0  0  0  0  0  0  0  0
   -3.1353   -0.3073    2.6142 H   0  0  0  0  0  0  0  0  0  0  0  0
   -3.6346    0.4479   -0.2874 H   0  0  0  0  0  0  0  0  0  0  0  0
   -3.8839    2.7834    0.4881 H   0  0  0  0  0  0  0  0  0  0  0  0
   -3.4854    2.3419    2.1729 H   0  0  0  0  0  0  0  0  0  0  0  0
   -5.8708    2.5689    1.8709 H   0  0  0  0  0  0  0  0  0  0  0  0
   -5.9338    1.4293    0.5361 H   0  0  0  0  0  0  0  0  0  0  0  0
   -5.4280   -0.3771    2.0457 H   0  0  0  0  0  0  0  0  0  0  0  0
   -6.6766    0.6315    2.6951 H   0  0  0  0  0  0  0  0  0  0  0  0
   -5.0736    0.7847    3.3381 H   0  0  0  0  0  0  0  0  0  0  0  0
   -1.7738    2.4955   -0.5042 N   0  0  0  0  0  0  0  0  0  0  0  0
   -0.6522    2.7070   -1.3397 C   0  0  2  0  0  0  0  0  0  0  0  0
   -0.1324    4.0128   -1.5890 C   0  0  0  0  0  0  0  0  0  0  0  0
    0.8083    4.1701   -2.4054 O   0  0  0  0  0  0  0  0  0  0  0  0
   -0.8864    2.0817   -2.7534 C   0  0  0  0  0  0  0  0  0  0  0  0
    0.5335    2.5733   -3.7293 S   0  0  0  0  0  0  0  0  0  0  0  0
   -2.6872    2.5456   -1.0509 H   0  0  0  0  0  0  0  0  0  0  0  0
    0.2111    2.0608   -0.9656 H   0  0  0  0  0  0  0  0  0  0  0  0
   -1.0285    1.0157   -2.6768 H   0  0  0  0  0  0  0  0  0  0  0  0
   -1.7927    2.5703   -3.1967 H   0  0  0  0  0  0  0  0  0  0  0  0
   -0.5418    5.2711   -0.9994 N   0  0  0  0  0  0  0  0  0  0  0  0
    0.1986    6.4445   -1.4734 C   0  0  2  0  0  0  0  0  0  0  0  0
    1.5351    6.2986   -0.8442 C   0  0  0  0  0  0  0  0  0  0  0  0
    2.4897    7.0902   -1.0270 O   0  0  0  0  0  0  0  0  0  0  0  0
   -0.5165    7.7073   -1.4559 C   0  0  2  0  0  0  0  0  0  0  0  0
    0.3351    8.8487   -1.9758 C   0  0  0  0  0  0  0  0  0  0  0  0
   -1.2710    8.0809   -0.2192 C   0  0  0  0  0  0  0  0  0  0  0  0
   -0.3756   10.1819   -1.9981 C   0  0  0  0  0  0  0  0  0  0  0  0
   -1.2843    5.2294   -0.3351 H   0  0  0  0  0  0  0  0  0  0  0  0
    0.4804    6.2643   -2.5821 H   0  0  0  0  0  0  0  0  0  0  0  0
   -1.3097    7.6077   -2.2715 H   0  0  0  0  0  0  0  0  0  0  0  0
    0.7187    8.6685   -2.9921 H   0  0  0  0  0  0  0  0  0  0  0  0
    1.2383    8.9745   -1.3147 H   0  0  0  0  0  0  0  0  0  0  0  0
   -2.3141    8.3775   -0.5213 H   0  0  0  0  0  0  0  0  0  0  0  0
   -0.8360    9.0489    0.1410 H   0  0  0  0  0  0  0  0  0  0  0  0
   -1.3867    7.3298    0.5480 H   0  0  0  0  0  0  0  0  0  0  0  0
   -1.4100   10.1451   -2.3484 H   0  0  0  0  0  0  0  0  0  0  0  0
    0.1491   10.8365   -2.7726 H   0  0  0  0  0  0  0  0  0  0  0  0
   -0.3016   10.7561   -1.0782 H   0  0  0  0  0  0  0  0  0  0  0  0
    1.8561    5.2134    0.0484 N   0  0  0  0  0  0  0  0  0  0  0  0
    3.2482    5.0199    0.5464 C   0  0  2  0  0  0  0  0  0  0  0  0
    3.4910    3.5769    0.7151 C   0  0  0  0  0  0  0  0  0  0  0  0
    2.5187    2.8011    0.7596 O   0  0  0  0  0  0  0  0  0  0  0  0
    3.4067    5.7208    1.8605 C   0  0  0  0  0  0  0  0  0  0  0  0
    2.5945    5.3018    3.0275 C   0  0  0  0  0  0  0  0  0  0  0  0
    1.1291    5.1833    2.8654 C   0  0  0  0  0  0  0  0  0  0  0  0
    0.4894    4.9410    4.1756 N   0  0  0  0  0  0  0  0  0  0  0  0
   -0.9270    4.6497    4.0602 C   0  0  0  0  0  0  0  0  0  0  0  0
   -1.7315    4.3901    5.1921 N   0  0  0  0  0  0  0  0  0  0  0  0
   -1.3936    4.6503    2.8353 N   0  0  0  0  0  0  0  0  0  0  0  0
    1.0939    4.6082    0.2825 H   0  0  0  0  0  0  0  0  0  0  0  0
    3.9598    5.4366   -0.1900 H   0  0  0  0  0  0  0  0  0  0  0  0
    4.5226    5.6312    2.0971 H   0  0  0  0  0  0  0  0  0  0  0  0
    3.2130    6.8191    1.6331 H   0  0  0  0  0  0  0  0  0  0  0  0
    2.7549    6.1069    3.8165 H   0  0  0  0  0  0  0  0  0  0  0  0
    3.0400    4.3970    3.5529 H   0  0  0  0  0  0  0  0  0  0  0  0
    0.8692    4.1939    2.3587 H   0  0  0  0  0  0  0  0  0  0  0  0
    0.7038    5.9641    2.2865 H   0  0  0  0  0  0  0  0  0  0  0  0
    0.9810    4.9743    5.0673 H   0  0  0  0  0  0  0  0  0  0  0  0
   -1.9428    3.4208    5.5414 H   0  0  0  0  0  0  0  0  0  0  0  0
   -2.1455    5.1688    5.7287 H   0  0  0  0  0  0  0  0  0  0  0  0
   -0.9260    4.8250    1.9835 H   0  0  0  0  0  0  0  0  0  0  0  0
   -2.4369    4.4359    2.7958 H   0  0  0  0  0  0  0  0  0  0  0  0
    4.7567    2.9306    0.8236 N   0  0  0  0  0  0  0  0  0  0  0  0
    4.8372    1.5048    1.0864 C   0  0  2  0  0  0  0  0  0  0  0  0
    5.8342    1.1904    2.1267 C   0  0  0  0  0  0  0  0  0  0  0  0
    6.4476    2.1501    2.7152 O   0  0  0  0  0  0  0  0  0  0  0  0
    4.8316    0.6060   -0.1002 C   0  0  0  0  0  0  0  0  0  0  0  0
    3.2829    0.6961   -0.9921 S   0  0  0  0  0  0  0  0  0  0  0  0
    5.5618    3.5520    0.6912 H   0  0  0  0  0  0  0  0  0  0  0  0
    3.8199    1.2305    1.5922 H   0  0  0  0  0  0  0  0  0  0  0  0
    4.9076   -0.4398    0.3060 H   0  0  0  0  0  0  0  0  0  0  0  0
    5.7223    0.7740   -0.7413 H   0  0  0  0  0  0  0  0  0  0  0  0
    6.1836   -0.1134    2.5528 N   0  0  0  0  0  0  0  0  0  0  0  0
    7.1337   -0.3851    3.5717 C   0  0  2  0  0  0  0  0  0  0  0  0
    8.2993   -1.2288    3.2031 C   0  0  0  0  0  0  0  0  0  0  0  0
    9.0466   -1.5406    4.1903 O   0  0  0  0  0  0  0  0  0  0  0  0
    6.4788   -1.0551    4.7910 C   0  0  0  0  0  0  0  0  0  0  0  0
    5.4209   -0.1622    5.3405 C   0  0  0  0  0  0  0  0  0  0  0  0
    4.1571   -0.3037    4.8172 C   0  0  0  0  0  0  0  0  0  0  0  0
    5.6224    0.7732    6.3147 C   0  0  0  0  0  0  0  0  0  0  0  0
    3.0953    0.4412    5.2249 C   0  0  0  0  0  0  0  0  0  0  0  0
    4.5453    1.5498    6.7461 C   0  0  0  0  0  0  0  0  0  0  0  0
    3.2732    1.4059    6.2215 C   0  0  0  0  0  0  0  0  0  0  0  0
    2.1975    2.1559    6.6321 O   0  0  0  0  0  0  0  0  0  0  0  0
    5.7116   -0.9443    2.0953 H   0  0  0  0  0  0  0  0  0  0  0  0
    7.5152    0.5998    3.9671 H   0  0  0  0  0  0  0  0  0  0  0  0
    7.2381   -1.1673    5.5951 H   0  0  0  0  0  0  0  0  0  0  0  0
    6.1092   -2.0198    4.4555 H   0  0  0  0  0  0  0  0  0  0  0  0
    3.9915   -1.0452    4.0359 H   0  0  0  0  0  0  0  0  0  0  0  0
    6.6198    0.9208    6.7589 H   0  0  0  0  0  0  0  0  0  0  0  0
    2.1040    0.2996    4.7786 H   0  0  0  0  0  0  0  0  0  0  0  0
    4.6874    2.2925    7.5144 H   0  0  0  0  0  0  0  0  0  0  0  0
    2.0187    2.4178    7.5982 H   0  0  0  0  0  0  0  0  0  0  0  0
    8.5392   -1.6337    1.8814 N   0  0  0  0  0  0  0  0  0  0  0  0
    9.5425   -2.4423    1.3016 C   0  0  2  0  0  0  0  0  0  0  0  0
   10.2953   -3.3511    2.2020 C   0  0  0  0  0  0  0  0  0  0  0  0
   10.0792   -3.5720    3.4041 O   0  0  0  0  0  0  0  0  0  0  0  0
   10.5336   -1.7647    0.4230 C   0  0  0  0  0  0  0  0  0  0  0  0
    7.8158   -1.2448    1.1723 H   0  0  0  0  0  0  0  0  0  0  0  0
    8.9578   -3.1924    0.6220 H   0  0  0  0  0  0  0  0  0  0  0  0
   11.5047   -1.5474    0.9739 H   0  0  0  0  0  0  0  0  0  0  0  0
   10.2285   -0.7975    0.0230 H   0  0  0  0  0  0  0  0  0  0  0  0
   10.8714   -2.3630   -0.4574 H   0  0  0  0  0  0  0  0  0  0  0  0
   11.3979   -4.0567    1.6106 N   0  0  0  0  0  0  0  0  0  0  0  0
   11.6143   -3.9964    0.5847 H   0  0  0  0  0  0  0  0  0  0  0  0
   12.0366   -4.6683    2.1893 H   0  0  0  0  0  0  0  0  0  0  0  0
    2.7003    1.1922   -4.1756 H   0  0  0  0  0  0  0  0  0  0  0  0
    1.5912    0.2970   -6.3756 H   0  0  0  0  0  0  0  0  0  0  0  0
   -0.8972    0.0344   -4.8565 H   0  0  0  0  0  0  0  0  0  0  0  0
    0.4867   -2.5401   -5.0913 H   0  0  0  0  0  0  0  0  0  0  0  0
    0.5048   -1.8268   -2.3319 H   0  0  0  0  0  0  0  0  0  0  0  0
    1.2461    0.3527   -2.4935 H   0  0  0  0  0  0  0  0  0  0  0  0
   -1.1045   -3.2859   -3.6397 H   0  0  0  0  0  0  0  0  0  0  0  0
   -2.7458   -1.5948   -2.8797 H   0  0  0  0  0  0  0  0  0  0  0  0
   -5.7645   -6.3088   -1.9713 H   0  0  0  0  0  0  0  0  0  0  0  0
   -4.5684   -7.2117   -3.7082 H   0  0  0  0  0  0  0  0  0  0  0  0
   -3.9224   -3.4760   -0.5655 H   0  0  0  0  0  0  0  0  0  0  0  0
   -5.2173   -4.7490    1.4174 H   0  0  0  0  0  0  0  0  0  0  0  0
   -1.1320    1.3827    1.1042 H   0  0  0  0  0  0  0  0  0  0  0  0
   -0.1502    0.0437   -0.2285 H   0  0  0  0  0  0  0  0  0  0  0  0
  1  2  1  0
  1 11  1  1
  1 12  1  0
  1 13  1  0
  2  3  1  0
  2  7  1  0
  3  4  1  0
  3 10  1  0
  4  5  1  0
  4 14  1  0
  5  6  1  0
  5  9  1  0
  6  7  1  0
  6 15  1  0
  7  8  1  0
  8 16  1  6
  8 17  1  0
  8171  1  0
  9 19  1  0
  9 21  1  0
 10 18  1  6
 10 20  1  0
 10118  1  0
 23 38  1  0
 38 39  1  0
 38 46  1  0
 39 40  1  0
 39 44  1  0
 39 47  1  1
 40 41  1  0
 40 48  1  1
 40 49  1  0
 41 42  1  0
 41 50  1  6
 41 51  1  0
 42 43  1  0
 42 52  1  1
 42 53  1  0
 43 54  1  6
 43 55  1  0
 44 45  1  0
 44 57  1  0
 57 58  1  0
 57 65  1  0
 58 59  1  0
 58 61  1  0
 58 66  1  1
 59 60  1  0
 59 76  1  0
 61 62  1  0
 61 67  1  1
 61 68  1  0
 62 63  1  0
 62 69  1  1
 62 70  1  0
 63 64  1  0
 63 71  1  6
 63 72  1  0
 64 73  1  1
 64 74  1  0
 64 75  1  0
 78 97  1  0
 97 98  1  0
 97104  1  0
 98 99  1  0
 98101  1  0
 98105  1  6
 99100  1  0
 99113  1  0
101102  1  0
101106  1  6
101107  1  0
102103  1  0
102108  1  1
102109  1  0
103110  1  6
103111  1  0
199207  1  0
207208  1  0
207209  1  0
 22 21  1  0
 23 22  1  0
 24 23  2  0
 25 22  1  0
 26 25  1  0
 27 26  1  0
 28 26  2  0
 29 27  2  0
 30 28  1  0
 30 29  1  0
 31 21  1  0
 22 32  1  1
 33 25  1  0
 34 25  1  0
 35 28  1  0
 36 29  1  0
 37 30  1  0
 56 43  1  0
 77 76  1  0
 78 77  1  0
 79 78  2  0
 80 77  1  0
 81 80  1  0
 82 81  2  0
 83 81  1  0
 84 82  1  0
 85 83  2  0
 86 85  1  0
 86 84  2  0
 87 86  1  0
 88 76  1  0
 77 89  1  1
 90 80  1  0
 91 80  1  0
 92 82  1  0
 93 83  1  0
 94 84  1  0
 95 85  1  0
 96 87  1  0
112103  1  0
114113  1  0
115114  1  0
116115  2  0
117114  1  0
118117  1  0
119113  1  0
114120  1  1
121117  1  0
122117  1  0
123115  1  0
124123  1  0
125124  1  0
126125  2  0
127124  1  0
128127  1  0
129127  1  0
130128  1  0
131123  1  0
124132  1  6
127133  1  6
134128  1  0
135128  1  0
136129  1  0
137129  1  0
138129  1  0
139130  1  0
140130  1  0
141130  1  0
142125  1  0
143142  1  0
144143  1  0
145144  2  0
146143  1  0
147146  1  0
148147  1  0
149148  1  0
150149  1  0
151150  1  0
152150  2  0
153142  1  0
143154  1  6
155146  1  0
156146  1  0
157147  1  0
158147  1  0
159148  1  0
160148  1  0
161149  1  0
162151  1  0
163151  1  0
164152  1  0
165152  1  0
166144  1  0
167166  1  0
168167  1  0
169168  2  0
170167  1  0
171170  1  0
172166  1  0
167173  1  1
174170  1  0
175170  1  0
176168  1  0
177176  1  0
178177  1  0
179178  2  0
180177  1  0
181180  1  0
182181  2  0
183181  1  0
184182  1  0
185183  2  0
186185  1  0
186184  2  0
187186  1  0
188176  1  0
177189  1  1
190180  1  0
191180  1  0
192182  1  0
193183  1  0
194184  1  0
195185  1  0
196187  1  0
197178  1  0
198197  1  0
199198  1  0
200199  2  0
201198  1  0
202197  1  0
198203  1  6
204201  1  0
205201  1  0
206201  1  0
  2210  1  1
  3211  1  6
  4212  1  0
  5213  1  0
  6214  1  0
  7215  1  0
  9216  1  0
 19217  1  0
 44218  1  0
 45219  1  0
 59220  1  0
 60221  1  0
 99222  1  0
100223  1  0
M  CHG  3  43   1 103   1 152   1
M  END
$$$$
BP70
     RDKit          3D

223228  0  0  0  0  0  0  0  0999 V2000
    2.0791   -1.3120    2.5293 C   0  0  2  0  0  0  0  0  0  0  0  0
    2.1450   -2.3047    1.4032 C   0  0  1  0  0  0  0  0  0  0  0  0
    2.0072   -1.8072    0.0364 C   0  0  1  0  0  0  0  0  0  0  0  0
    2.5492   -2.7212   -0.9911 C   0  0  0  0  0  0  0  0  0  0  0  0
    2.7447   -4.1435   -0.7233 C   0  0  0  0  0  0  0  0  0  0  0  0
    2.7824   -4.5584    0.6978 C   0  0  0  0  0  0  0  0  0  0  0  0
    3.1399   -3.3619    1.5997 C   0  0  0  0  0  0  0  0  0  0  0  0
    4.5799   -3.1510    1.6988 C   0  0  2  0  0  0  0  0  0  0  0  0
    1.9053   -5.0051   -1.6085 C   0  0  0  0  0  0  0  0  0  0  0  0
    0.5296   -1.4908   -0.3162 C   0  0  1  0  0  0  0  0  0  0  0  0
    3.0599   -1.4252    3.0695 H   0  0  0  0  0  0  0  0  0  0  0  0
    1.3261   -1.6208    3.2555 H   0  0  0  0  0  0  0  0  0  0  0  0
    2.0069   -0.2691    2.2745 H   0  0  0  0  0  0  0  0  0  0  0  0
    1.8436   -2.6414   -1.8694 H   0  0  0  0  0  0  0  0  0  0  0  0
    1.8133   -4.9199    1.0479 H   0  0  0  0  0  0  0  0  0  0  0  0
    5.1056   -4.1598    1.5058 H   0  0  0  0  0  0  0  0  0  0  0  0
    4.8777   -3.0058    2.7957 H   0  0  0  0  0  0  0  0  0  0  0  0
    0.4923   -1.3355   -1.3994 H   0  0  0  0  0  0  0  0  0  0  0  0
    1.7308   -6.2797   -1.0953 O   0  0  0  0  0  0  0  0  0  0  0  0
    0.0000   -2.4370   -0.0941 H   0  0  0  0  0  0  0  0  0  0  0  0
    0.5799   -4.4700   -1.9291 N   0  0  0  0  0  0  0  0  0  0  0  0
    0.0250   -5.1277   -3.0696 C   0  0  2  0  0  0  0  0  0  0  0  0
   -1.0974   -4.4151   -3.7269 C   0  0  0  0  0  0  0  0  0  0  0  0
   -1.5155   -4.8616   -4.7948 O   0  0  0  0  0  0  0  0  0  0  0  0
   -0.3725   -6.5811   -2.8420 C   0  0  0  0  0  0  0  0  0  0  0  0
   -1.3962   -6.7005   -1.7967 C   0  0  0  0  0  0  0  0  0  0  0  0
   -1.3164   -6.8699   -0.4779 N   0  0  0  0  0  0  0  0  0  0  0  0
   -2.7673   -6.6365   -2.0951 C   0  0  0  0  0  0  0  0  0  0  0  0
   -2.5535   -6.9085    0.0157 C   0  0  0  0  0  0  0  0  0  0  0  0
   -3.4695   -6.7708   -0.9330 N   0  0  0  0  0  0  0  0  0  0  0  0
   -0.0227   -4.5845   -1.0726 H   0  0  0  0  0  0  0  0  0  0  0  0
    0.8331   -5.1863   -3.8513 H   0  0  0  0  0  0  0  0  0  0  0  0
    0.4414   -7.2650   -2.6495 H   0  0  0  0  0  0  0  0  0  0  0  0
   -0.8384   -6.9594   -3.8074 H   0  0  0  0  0  0  0  0  0  0  0  0
   -3.2123   -6.5053   -3.0852 H   0  0  0  0  0  0  0  0  0  0  0  0
   -2.7740   -7.0378    1.0663 H   0  0  0  0  0  0  0  0  0  0  0  0
   -4.5108   -6.7532   -0.9192 H   0  0  0  0  0  0  0  0  0  0  0  0
   -1.7594   -3.2488   -3.2311 N   0  0  0  0  0  0  0  0  0  0  0  0
   -2.7298   -2.5130   -3.9544 C   0  0  1  0  0  0  0  0  0  0  0  0
   -2.6853   -2.6884   -5.4743 C   0  0  2  0  0  0  0  0  0  0  0  0
   -1.3771   -2.2207   -6.0135 C   0  0  2  0  0  0  0  0  0  0  0  0
   -1.2532   -2.3910   -7.5148 C   0  0  1  0  0  0  0  0  0  0  0  0
   -1.3873   -3.8103   -7.8730 N   0  0  2  0  0  0  0  0  0  0  0  0
   -4.1302   -2.4469   -3.4554 C   0  0  0  0  0  0  0  0  0  0  0  0
   -4.9029   -1.6791   -4.3674 O   0  0  0  0  0  0  0  0  0  0  0  0
   -1.4758   -2.9751   -2.2892 H   0  0  0  0  0  0  0  0  0  0  0  0
   -2.3166   -1.4334   -3.9067 H   0  0  0  0  0  0  0  0  0  0  0  0
   -3.4362   -1.9045   -5.8219 H   0  0  0  0  0  0  0  0  0  0  0  0
   -3.0921   -3.6136   -5.8449 H   0  0  0  0  0  0  0  0  0  0  0  0
   -0.4654   -2.5879   -5.5451 H   0  0  0  0  0  0  0  0  0  0  0  0
   -1.3471   -1.0976   -5.7760 H   0  0  0  0  0  0  0  0  0  0  0  0
   -2.0147   -1.8365   -8.0761 H   0  0  0  0  0  0  0  0  0  0  0  0
   -0.2125   -2.1100   -7.8415 H   0  0  0  0  0  0  0  0  0  0  0  0
   -1.2262   -3.9029   -8.9379 H   0  0  0  0  0  0  0  0  0  0  0  0
   -2.3503   -4.1740   -7.6411 H   0  0  0  0  0  0  0  0  0  0  0  0
   -0.6221   -4.3784   -7.3732 H   0  0  0  0  0  0  0  0  0  0  0  0
   -4.3103   -1.8564   -2.1487 N   0  0  0  0  0  0  0  0  0  0  0  0
   -5.7284   -1.5113   -1.8812 C   0  0  2  0  0  0  0  0  0  0  0  0
   -5.7935   -0.8490   -0.5206 C   0  0  0  0  0  0  0  0  0  0  0  0
   -4.9510    0.3027   -0.6001 O   0  0  0  0  0  0  0  0  0  0  0  0
   -6.5531   -2.7077   -2.0907 C   0  0  2  0  0  0  0  0  0  0  0  0
   -8.0110   -2.6695   -1.9568 C   0  0  1  0  0  0  0  0  0  0  0  0
   -8.6385   -2.3179   -0.6645 C   0  0  1  0  0  0  0  0  0  0  0  0
   -8.2652   -3.1812    0.4999 C   0  0  2  0  0  0  0  0  0  0  0  0
   -4.0197   -2.5480   -1.4457 H   0  0  0  0  0  0  0  0  0  0  0  0
   -5.9624   -0.7478   -2.6499 H   0  0  0  0  0  0  0  0  0  0  0  0
   -6.1862   -3.5947   -1.4903 H   0  0  0  0  0  0  0  0  0  0  0  0
   -6.3682   -3.0943   -3.1605 H   0  0  0  0  0  0  0  0  0  0  0  0
   -8.4377   -1.9290   -2.7256 H   0  0  0  0  0  0  0  0  0  0  0  0
   -8.4496   -3.6484   -2.3538 H   0  0  0  0  0  0  0  0  0  0  0  0
   -8.6592   -1.2555   -0.4868 H   0  0  0  0  0  0  0  0  0  0  0  0
   -9.7810   -2.5656   -0.8561 H   0  0  0  0  0  0  0  0  0  0  0  0
   -8.9759   -4.0456    0.5484 H   0  0  0  0  0  0  0  0  0  0  0  0
   -8.3646   -2.6491    1.4651 H   0  0  0  0  0  0  0  0  0  0  0  0
   -7.2548   -3.6209    0.3453 H   0  0  0  0  0  0  0  0  0  0  0  0
   -5.2870   -1.6679    0.5536 N   0  0  0  0  0  0  0  0  0  0  0  0
   -5.5577   -1.1880    1.8671 C   0  0  2  0  0  0  0  0  0  0  0  0
   -4.8369   -0.0484    2.3826 C   0  0  0  0  0  0  0  0  0  0  0  0
   -5.3027    0.5922    3.3564 O   0  0  0  0  0  0  0  0  0  0  0  0
   -5.5176   -2.3899    2.8374 C   0  0  0  0  0  0  0  0  0  0  0  0
   -5.7736   -2.0398    4.2281 C   0  0  0  0  0  0  0  0  0  0  0  0
   -7.0704   -1.9915    4.6816 C   0  0  0  0  0  0  0  0  0  0  0  0
   -4.6852   -1.7927    5.0749 C   0  0  0  0  0  0  0  0  0  0  0  0
   -7.2996   -1.6868    6.0257 C   0  0  0  0  0  0  0  0  0  0  0  0
   -4.9086   -1.4908    6.4058 C   0  0  0  0  0  0  0  0  0  0  0  0
   -6.2081   -1.4439    6.8532 C   0  0  0  0  0  0  0  0  0  0  0  0
   -6.3891   -1.1316    8.2168 O   0  0  0  0  0  0  0  0  0  0  0  0
   -4.2259   -1.6189    0.4290 H   0  0  0  0  0  0  0  0  0  0  0  0
   -6.6563   -0.9104    1.8737 H   0  0  0  0  0  0  0  0  0  0  0  0
   -4.5231   -2.9047    2.6905 H   0  0  0  0  0  0  0  0  0  0  0  0
   -6.2563   -3.1411    2.5088 H   0  0  0  0  0  0  0  0  0  0  0  0
   -7.8789   -2.1866    3.9903 H   0  0  0  0  0  0  0  0  0  0  0  0
   -3.7152   -1.8487    4.6601 H   0  0  0  0  0  0  0  0  0  0  0  0
   -8.3116   -1.6338    6.4384 H   0  0  0  0  0  0  0  0  0  0  0  0
   -4.0657   -1.3090    7.0408 H   0  0  0  0  0  0  0  0  0  0  0  0
   -5.8104   -1.6803    8.8691 H   0  0  0  0  0  0  0  0  0  0  0  0
   -3.5919    0.4696    1.9181 N   0  0  0  0  0  0  0  0  0  0  0  0
   -2.9980    1.7031    2.4588 C   0  0  2  0  0  0  0  0  0  0  0  0
   -2.4172    2.6193    1.4993 C   0  0  0  0  0  0  0  0  0  0  0  0
   -3.4465    3.0013    0.5856 O   0  0  0  0  0  0  0  0  0  0  0  0
   -2.4116    1.4888    3.8117 C   0  0  2  0  0  0  0  0  0  0  0  0
   -1.3840    0.4531    3.9974 C   0  0  1  0  0  0  0  0  0  0  0  0
   -1.0668    0.5220    5.4702 N   0  0  2  0  0  0  0  0  0  0  0  0
   -3.1189   -0.0783    1.2071 H   0  0  0  0  0  0  0  0  0  0  0  0
   -3.9879    2.2625    2.7727 H   0  0  0  0  0  0  0  0  0  0  0  0
   -3.2088    1.2151    4.5786 H   0  0  0  0  0  0  0  0  0  0  0  0
   -2.0763    2.4821    4.2639 H   0  0  0  0  0  0  0  0  0  0  0  0
   -1.8588   -0.5588    3.8959 H   0  0  0  0  0  0  0  0  0  0  0  0
   -0.4172    0.5082    3.5562 H   0  0  0  0  0  0  0  0  0  0  0  0
   -0.2723   -0.1855    5.6435 H   0  0  0  0  0  0  0  0  0  0  0  0
   -1.9271    0.2266    6.0048 H   0  0  0  0  0  0  0  0  0  0  0  0
   -0.7591    1.5074    5.7016 H   0  0  0  0  0  0  0  0  0  0  0  0
   -1.2952    2.3879    0.7389 N   0  0  0  0  0  0  0  0  0  0  0  0
    0.0124    2.4734    1.2721 C   0  0  2  0  0  0  0  0  0  0  0  0
    0.5900    3.8346    1.1338 C   0  0  0  0  0  0  0  0  0  0  0  0
    0.1976    4.7224    0.3767 O   0  0  0  0  0  0  0  0  0  0  0  0
    0.7976    1.4446    0.4082 C   0  0  0  0  0  0  0  0  0  0  0  0
    0.0250   -0.1432    0.6886 S   0  0  0  0  0  0  0  0  0  0  0  0
   -1.3100    3.0105   -0.1172 H   0  0  0  0  0  0  0  0  0  0  0  0
    0.1792    2.2326    2.3076 H   0  0  0  0  0  0  0  0  0  0  0  0
    0.7193    1.6846   -0.6683 H   0  0  0  0  0  0  0  0  0  0  0  0
    1.8478    1.5271    0.6731 H   0  0  0  0  0  0  0  0  0  0  0  0
    1.7345    4.2417    1.9549 N   0  0  0  0  0  0  0  0  0  0  0  0
    2.3879    5.5145    1.7464 C   0  0  2  0  0  0  0  0  0  0  0  0
    3.8420    5.4618    1.8363 C   0  0  0  0  0  0  0  0  0  0  0  0
    4.6460    6.3810    1.6015 O   0  0  0  0  0  0  0  0  0  0  0  0
    1.8107    6.5924    2.6244 C   0  0  2  0  0  0  0  0  0  0  0  0
    2.4269    7.9430    2.4506 C   0  0  0  0  0  0  0  0  0  0  0  0
    1.7955    6.2842    4.0913 C   0  0  0  0  0  0  0  0  0  0  0  0
    2.3180    8.5198    1.0734 C   0  0  0  0  0  0  0  0  0  0  0  0
    1.9662    3.5413    2.6598 H   0  0  0  0  0  0  0  0  0  0  0  0
    2.1108    5.8298    0.7208 H   0  0  0  0  0  0  0  0  0  0  0  0
    0.7342    6.6997    2.3114 H   0  0  0  0  0  0  0  0  0  0  0  0
    3.4757    8.0179    2.7600 H   0  0  0  0  0  0  0  0  0  0  0  0
    1.8525    8.6405    3.1371 H   0  0  0  0  0  0  0  0  0  0  0  0
    0.9207    6.8273    4.5526 H   0  0  0  0  0  0  0  0  0  0  0  0
    1.8694    5.2440    4.3755 H   0  0  0  0  0  0  0  0  0  0  0  0
    2.6748    6.8040    4.5773 H   0  0  0  0  0  0  0  0  0  0  0  0
    3.1554    9.2158    0.8363 H   0  0  0  0  0  0  0  0  0  0  0  0
    2.2396    7.7911    0.2535 H   0  0  0  0  0  0  0  0  0  0  0  0
    1.3874    9.1194    1.0251 H   0  0  0  0  0  0  0  0  0  0  0  0
    4.4769    4.2388    2.2396 N   0  0  0  0  0  0  0  0  0  0  0  0
    5.9045    4.0560    2.3602 C   0  0  2  0  0  0  0  0  0  0  0  0
    6.3022    2.8242    1.6249 C   0  0  0  0  0  0  0  0  0  0  0  0
    7.4802    2.4376    1.5730 O   0  0  0  0  0  0  0  0  0  0  0  0
    6.2748    3.7444    3.8129 C   0  0  0  0  0  0  0  0  0  0  0  0
    5.8906    4.8613    4.7645 C   0  0  0  0  0  0  0  0  0  0  0  0
    6.2716    4.4875    6.1671 C   0  0  0  0  0  0  0  0  0  0  0  0
    5.9854    5.4821    7.1414 N   0  0  0  0  0  0  0  0  0  0  0  0
    4.7437    5.9558    7.5841 C   0  0  0  0  0  0  0  0  0  0  0  0
    4.7659    7.0005    8.5886 N   0  0  0  0  0  0  0  0  0  0  0  0
    3.5886    5.5167    7.1345 N   0  0  0  0  0  0  0  0  0  0  0  0
    3.8693    3.4622    2.4567 H   0  0  0  0  0  0  0  0  0  0  0  0
    6.5134    4.9053    2.0422 H   0  0  0  0  0  0  0  0  0  0  0  0
    7.3749    3.6324    3.8317 H   0  0  0  0  0  0  0  0  0  0  0  0
    5.7935    2.8112    4.1469 H   0  0  0  0  0  0  0  0  0  0  0  0
    4.8326    5.1219    4.7234 H   0  0  0  0  0  0  0  0  0  0  0  0
    6.5487    5.7227    4.4490 H   0  0  0  0  0  0  0  0  0  0  0  0
    5.6737    3.5731    6.4905 H   0  0  0  0  0  0  0  0  0  0  0  0
    7.3136    4.1675    6.2698 H   0  0  0  0  0  0  0  0  0  0  0  0
    6.8411    5.9369    7.6011 H   0  0  0  0  0  0  0  0  0  0  0  0
    4.0712    7.0375    9.3607 H   0  0  0  0  0  0  0  0  0  0  0  0
    5.5249    7.7367    8.5066 H   0  0  0  0  0  0  0  0  0  0  0  0
    2.7842    5.9988    7.5923 H   0  0  0  0  0  0  0  0  0  0  0  0
    3.4133    4.8032    6.4589 H   0  0  0  0  0  0  0  0  0  0  0  0
    5.3723    1.9891    0.9234 N   0  0  0  0  0  0  0  0  0  0  0  0
    5.8316    0.7512    0.2523 C   0  0  2  0  0  0  0  0  0  0  0  0
    5.4469    0.7045   -1.1501 C   0  0  0  0  0  0  0  0  0  0  0  0
    5.9600   -0.1571   -1.9490 O   0  0  0  0  0  0  0  0  0  0  0  0
    5.1647   -0.3305    1.0993 C   0  0  0  0  0  0  0  0  0  0  0  0
    5.4533   -1.9953    0.6585 S   0  0  0  0  0  0  0  0  0  0  0  0
    4.4143    2.3123    0.9186 H   0  0  0  0  0  0  0  0  0  0  0  0
    6.9055    0.6759    0.3975 H   0  0  0  0  0  0  0  0  0  0  0  0
    4.1292   -0.0182    1.2056 H   0  0  0  0  0  0  0  0  0  0  0  0
    5.6122   -0.1501    2.1291 H   0  0  0  0  0  0  0  0  0  0  0  0
    4.4815    1.5895   -1.7526 N   0  0  0  0  0  0  0  0  0  0  0  0
    4.1637    1.4871   -3.1789 C   0  0  2  0  0  0  0  0  0  0  0  0
    3.5797    2.6881   -3.7569 C   0  0  0  0  0  0  0  0  0  0  0  0
    3.4379    2.7831   -5.0311 O   0  0  0  0  0  0  0  0  0  0  0  0
    3.1583    0.3364   -3.3640 C   0  0  0  0  0  0  0  0  0  0  0  0
    2.8215    0.2298   -4.7907 C   0  0  0  0  0  0  0  0  0  0  0  0
    1.7093    0.8001   -5.3861 C   0  0  0  0  0  0  0  0  0  0  0  0
    3.6884   -0.5007   -5.6226 C   0  0  0  0  0  0  0  0  0  0  0  0
    1.4493    0.6652   -6.7377 C   0  0  0  0  0  0  0  0  0  0  0  0
    3.4432   -0.6440   -6.9736 C   0  0  0  0  0  0  0  0  0  0  0  0
    2.3165   -0.0552   -7.5250 C   0  0  0  0  0  0  0  0  0  0  0  0
    2.1265   -0.2366   -8.8884 O   0  0  0  0  0  0  0  0  0  0  0  0
    4.0537    2.2724   -1.1129 H   0  0  0  0  0  0  0  0  0  0  0  0
    5.0597    1.1064   -3.6798 H   0  0  0  0  0  0  0  0  0  0  0  0
    2.2590    0.4507   -2.7707 H   0  0  0  0  0  0  0  0  0  0  0  0
    3.6749   -0.6256   -3.0758 H   0  0  0  0  0  0  0  0  0  0  0  0
    1.0234    1.3713   -4.7409 H   0  0  0  0  0  0  0  0  0  0  0  0
    4.5560   -0.9555   -5.1692 H   0  0  0  0  0  0  0  0  0  0  0  0
    0.5700    1.1288   -7.1512 H   0  0  0  0  0  0  0  0  0  0  0  0
    4.1586   -1.2156   -7.5477 H   0  0  0  0  0  0  0  0  0  0  0  0
    1.4825    0.3707   -9.3757 H   0  0  0  0  0  0  0  0  0  0  0  0
    3.1211    3.8229   -3.0328 N   0  0  0  0  0  0  0  0  0  0  0  0
    2.5416    4.9615   -3.7164 C   0  0  2  0  0  0  0  0  0  0  0  0
    3.1528    6.2564   -3.3408 C   0  0  0  0  0  0  0  0  0  0  0  0
    4.1135    6.3145   -2.5105 O   0  0  0  0  0  0  0  0  0  0  0  0
    1.0521    5.0733   -3.4430 C   0  0  0  0  0  0  0  0  0  0  0  0
    3.1919    3.8537   -1.9999 H   0  0  0  0  0  0  0  0  0  0  0  0
    2.6037    4.8309   -4.8330 H   0  0  0  0  0  0  0  0  0  0  0  0
    0.5683    4.0866   -3.3114 H   0  0  0  0  0  0  0  0  0  0  0  0
    0.8825    5.7844   -2.6077 H   0  0  0  0  0  0  0  0  0  0  0  0
    0.5362    5.5266   -4.3147 H   0  0  0  0  0  0  0  0  0  0  0  0
    2.6111    7.4222   -3.9555 N   0  0  0  0  0  0  0  0  0  0  0  0
    1.9934    8.0156   -3.3704 H   0  0  0  0  0  0  0  0  0  0  0  0
    2.8292    7.6685   -4.9460 H   0  0  0  0  0  0  0  0  0  0  0  0
    1.1296   -2.8891    1.5718 H   0  0  0  0  0  0  0  0  0  0  0  0
    2.4678   -0.8063   -0.1497 H   0  0  0  0  0  0  0  0  0  0  0  0
    3.5031   -2.2529   -1.4145 H   0  0  0  0  0  0  0  0  0  0  0  0
    3.8197   -4.3544   -1.1234 H   0  0  0  0  0  0  0  0  0  0  0  0
    3.5370   -5.3168    0.8947 H   0  0  0  0  0  0  0  0  0  0  0  0
    2.8594   -3.7732    2.6524 H   0  0  0  0  0  0  0  0  0  0  0  0
    2.3956   -5.1687   -2.6152 H   0  0  0  0  0  0  0  0  0  0  0  0
    1.3696   -6.3447   -0.1953 H   0  0  0  0  0  0  0  0  0  0  0  0
   -4.5638   -3.4867   -3.4932 H   0  0  0  0  0  0  0  0  0  0  0  0
   -5.2529   -2.2416   -5.0837 H   0  0  0  0  0  0  0  0  0  0  0  0
   -6.7410   -0.4455   -0.2198 H   0  0  0  0  0  0  0  0  0  0  0  0
   -5.4481    1.0711   -0.9822 H   0  0  0  0  0  0  0  0  0  0  0  0
   -2.2590    3.6020    2.0650 H   0  0  0  0  0  0  0  0  0  0  0  0
   -3.0498    3.4060   -0.2221 H   0  0  0  0  0  0  0  0  0  0  0  0
  1  2  1  0
  1 11  1  1
  1 12  1  0
  1 13  1  0
  2  3  1  0
  2  7  1  0
  3  4  1  0
  3 10  1  0
  4  5  1  0
  4 14  1  0
  5  6  1  0
  5  9  1  0
  6  7  1  0
  6 15  1  0
  7  8  1  0
  8 16  1  6
  8 17  1  0
  8171  1  0
  9 19  1  0
  9 21  1  0
 10 18  1  6
 10 20  1  0
 10118  1  0
 23 38  1  0
 38 39  1  0
 38 46  1  0
 39 40  1  0
 39 44  1  0
 39 47  1  6
 40 41  1  0
 40 48  1  6
 40 49  1  0
 41 42  1  0
 41 50  1  1
 41 51  1  0
 42 43  1  0
 42 52  1  6
 42 53  1  0
 43 54  1  6
 43 55  1  0
 44 45  1  0
 44 57  1  0
 57 58  1  0
 57 65  1  0
 58 59  1  0
 58 61  1  0
 58 66  1  6
 59 60  1  0
 59 76  1  0
 61 62  1  0
 61 67  1  1
 61 68  1  0
 62 63  1  0
 62 69  1  6
 62 70  1  0
 63 64  1  0
 63 71  1  1
 63 72  1  0
 64 73  1  1
 64 74  1  0
 64 75  1  0
 78 97  1  0
 97 98  1  0
 97104  1  0
 98 99  1  0
 98101  1  0
 98105  1  1
 99100  1  0
 99113  1  0
101102  1  0
101106  1  1
101107  1  0
102103  1  0
102108  1  1
102109  1  0
103110  1  6
103111  1  0
199207  1  0
207208  1  0
207209  1  0
 22 21  1  0
 23 22  1  0
 24 23  2  0
 25 22  1  0
 26 25  1  0
 27 26  1  0
 28 26  2  0
 29 27  2  0
 30 28  1  0
 30 29  1  0
 31 21  1  0
 22 32  1  6
 33 25  1  0
 34 25  1  0
 35 28  1  0
 36 29  1  0
 37 30  1  0
 56 43  1  0
 77 76  1  0
 78 77  1  0
 79 78  2  0
 80 77  1  0
 81 80  1  0
 82 81  2  0
 83 81  1  0
 84 82  1  0
 85 83  2  0
 86 85  1  0
 86 84  2  0
 87 86  1  0
 88 76  1  0
 77 89  1  6
 90 80  1  0
 91 80  1  0
 92 82  1  0
 93 83  1  0
 94 84  1  0
 95 85  1  0
 96 87  1  0
112103  1  0
114113  1  0
115114  1  0
116115  2  0
117114  1  0
118117  1  0
119113  1  0
114120  1  1
121117  1  0
122117  1  0
123115  1  0
124123  1  0
125124  1  0
126125  2  0
127124  1  0
128127  1  0
129127  1  0
130128  1  0
131123  1  0
124132  1  6
127133  1  6
134128  1  0
135128  1  0
136129  1  0
137129  1  0
138129  1  0
139130  1  0
140130  1  0
141130  1  0
142125  1  0
143142  1  0
144143  1  0
145144  2  0
146143  1  0
147146  1  0
148147  1  0
149148  1  0
150149  1  0
151150  1  0
152150  2  0
153142  1  0
143154  1  6
155146  1  0
156146  1  0
157147  1  0
158147  1  0
159148  1  0
160148  1  0
161149  1  0
162151  1  0
163151  1  0
164152  1  0
165152  1  0
166144  1  0
167166  1  0
168167  1  0
169168  2  0
170167  1  0
171170  1  0
172166  1  0
167173  1  6
174170  1  0
175170  1  0
176168  1  0
177176  1  0
178177  1  0
179178  2  0
180177  1  0
181180  1  0
182181  2  0
183181  1  0
184182  1  0
185183  2  0
186185  1  0
186184  2  0
187186  1  0
188176  1  0
177189  1  6
190180  1  0
191180  1  0
192182  1  0
193183  1  0
194184  1  0
195185  1  0
196187  1  0
197178  1  0
198197  1  0
199198  1  0
200199  2  0
201198  1  0
202197  1  0
198203  1  6
204201  1  0
205201  1  0
206201  1  0
  2210  1  1
  3211  1  1
  4212  1  0
  5213  1  0
  6214  1  0
  7215  1  0
  9216  1  0
 19217  1  0
 44218  1  0
 45219  1  0
 59220  1  0
 60221  1  0
 99222  1  0
100223  1  0
M  CHG  3  43   1 103   1 152   1
M  END
$$$$
BP70
     RDKit          3D

223228  0  0  0  0  0  0  0  0999 V2000
   -2.9094    2.0692   -3.9619 C   0  0  2  0  0  0  0  0  0  0  0  0
   -1.4973    1.6580   -3.9341 C   0  0  1  0  0  0  0  0  0  0  0  0
   -0.9692    1.1914   -2.5856 C   0  0  1  0  0  0  0  0  0  0  0  0
    0.5034    1.5257   -2.5845 C   0  0  0  0  0  0  0  0  0  0  0  0
    1.2014    1.2382   -3.8410 C   0  0  0  0  0  0  0  0  0  0  0  0
    0.4936    0.9507   -5.0936 C   0  0  0  0  0  0  0  0  0  0  0  0
   -1.0030    0.6556   -4.8939 C   0  0  0  0  0  0  0  0  0  0  0  0
   -1.6796    0.4881   -6.2045 C   0  0  2  0  0  0  0  0  0  0  0  0
    2.2623    2.3552   -4.0534 C   0  0  0  0  0  0  0  0  0  0  0  0
   -1.6865    1.6955   -1.3999 C   0  0  1  0  0  0  0  0  0  0  0  0
   -3.4770    1.8899   -4.8677 H   0  0  0  0  0  0  0  0  0  0  0  0
   -3.0433    3.1704   -3.7268 H   0  0  0  0  0  0  0  0  0  0  0  0
   -3.4803    1.5651   -3.1391 H   0  0  0  0  0  0  0  0  0  0  0  0
    0.9252    0.8472   -1.7764 H   0  0  0  0  0  0  0  0  0  0  0  0
    0.5899    1.7602   -5.8718 H   0  0  0  0  0  0  0  0  0  0  0  0
   -0.8942    0.6327   -7.0124 H   0  0  0  0  0  0  0  0  0  0  0  0
   -2.4241    1.2702   -6.4543 H   0  0  0  0  0  0  0  0  0  0  0  0
   -0.9574    2.3848   -0.8529 H   0  0  0  0  0  0  0  0  0  0  0  0
    1.6099    3.3152   -4.8623 O   0  0  0  0  0  0  0  0  0  0  0  0
   -2.5627    2.3499   -1.5785 H   0  0  0  0  0  0  0  0  0  0  0  0
    2.5874    2.9973   -2.8424 N   0  0  0  0  0  0  0  0  0  0  0  0
    3.9170    3.1655   -2.4349 C   0  0  2  0  0  0  0  0  0  0  0  0
    4.0155    3.7243   -1.0286 C   0  0  0  0  0  0  0  0  0  0  0  0
    5.0899    4.1375   -0.5962 O   0  0  0  0  0  0  0  0  0  0  0  0
    4.8233    4.0002   -3.2517 C   0  0  0  0  0  0  0  0  0  0  0  0
    5.1202    3.6447   -4.6281 C   0  0  0  0  0  0  0  0  0  0  0  0
    6.1317    2.8069   -4.9762 N   0  0  0  0  0  0  0  0  0  0  0  0
    4.5605    4.0516   -5.8347 C   0  0  0  0  0  0  0  0  0  0  0  0
    6.1677    2.7248   -6.3063 C   0  0  0  0  0  0  0  0  0  0  0  0
    5.2111    3.4806   -6.8648 N   0  0  0  0  0  0  0  0  0  0  0  0
    1.9902    3.8611   -2.6573 H   0  0  0  0  0  0  0  0  0  0  0  0
    4.4503    2.1540   -2.3359 H   0  0  0  0  0  0  0  0  0  0  0  0
    5.7865    4.1671   -2.6597 H   0  0  0  0  0  0  0  0  0  0  0  0
    4.3820    5.0389   -3.2500 H   0  0  0  0  0  0  0  0  0  0  0  0
    3.7307    4.7329   -5.8646 H   0  0  0  0  0  0  0  0  0  0  0  0
    6.8550    2.1405   -6.8986 H   0  0  0  0  0  0  0  0  0  0  0  0
    5.0007    3.6089   -7.8988 H   0  0  0  0  0  0  0  0  0  0  0  0
    2.8985    3.7974   -0.1420 N   0  0  0  0  0  0  0  0  0  0  0  0
    3.1337    4.4359    1.1310 C   0  0  1  0  0  0  0  0  0  0  0  0
    1.8931    5.1442    1.5836 C   0  0  2  0  0  0  0  0  0  0  0  0
    1.4268    6.2075    0.6429 C   0  0  2  0  0  0  0  0  0  0  0  0
    0.1631    6.8139    1.2598 C   0  0  1  0  0  0  0  0  0  0  0  0
   -0.3529    7.8885    0.3761 N   0  0  2  0  0  0  0  0  0  0  0  0
    3.4709    3.3892    2.2192 C   0  0  0  0  0  0  0  0  0  0  0  0
    2.3778    2.5874    2.3724 O   0  0  0  0  0  0  0  0  0  0  0  0
    2.0383    3.3928   -0.4907 H   0  0  0  0  0  0  0  0  0  0  0  0
    4.0248    5.1250    1.0682 H   0  0  0  0  0  0  0  0  0  0  0  0
    2.0927    5.6542    2.5755 H   0  0  0  0  0  0  0  0  0  0  0  0
    1.0762    4.3958    1.7056 H   0  0  0  0  0  0  0  0  0  0  0  0
    1.1407    5.7838   -0.3414 H   0  0  0  0  0  0  0  0  0  0  0  0
    2.1326    7.0317    0.5217 H   0  0  0  0  0  0  0  0  0  0  0  0
   -0.6289    6.0520    1.3954 H   0  0  0  0  0  0  0  0  0  0  0  0
    0.3972    7.2408    2.2682 H   0  0  0  0  0  0  0  0  0  0  0  0
   -0.7709    8.6767    0.9810 H   0  0  0  0  0  0  0  0  0  0  0  0
   -1.1203    7.4732   -0.2415 H   0  0  0  0  0  0  0  0  0  0  0  0
    0.4441    8.2550   -0.2161 H   0  0  0  0  0  0  0  0  0  0  0  0
    3.7475    4.1322    3.4299 N   0  0  0  0  0  0  0  0  0  0  0  0
    4.8488    3.5996    4.1709 C   0  0  2  0  0  0  0  0  0  0  0  0
    4.6705    2.4620    5.0849 C   0  0  0  0  0  0  0  0  0  0  0  0
    5.9485    2.1478    5.5923 O   0  0  0  0  0  0  0  0  0  0  0  0
    5.6373    4.7249    4.8582 C   0  0  2  0  0  0  0  0  0  0  0  0
    4.8866    5.5175    5.8524 C   0  0  1  0  0  0  0  0  0  0  0  0
    3.6715    6.2418    5.3667 C   0  0  1  0  0  0  0  0  0  0  0  0
    3.1060    7.0124    6.5797 C   0  0  2  0  0  0  0  0  0  0  0  0
    3.9984    5.1218    3.1042 H   0  0  0  0  0  0  0  0  0  0  0  0
    5.5910    3.2498    3.3727 H   0  0  0  0  0  0  0  0  0  0  0  0
    5.9831    5.4056    4.0403 H   0  0  0  0  0  0  0  0  0  0  0  0
    6.5035    4.2621    5.3737 H   0  0  0  0  0  0  0  0  0  0  0  0
    4.6910    4.9586    6.8087 H   0  0  0  0  0  0  0  0  0  0  0  0
    5.5979    6.3395    6.1928 H   0  0  0  0  0  0  0  0  0  0  0  0
    3.9466    6.9681    4.5901 H   0  0  0  0  0  0  0  0  0  0  0  0
    2.8350    5.5629    5.0530 H   0  0  0  0  0  0  0  0  0  0  0  0
    2.0633    7.3029    6.3932 H   0  0  0  0  0  0  0  0  0  0  0  0
    3.7407    7.9112    6.7312 H   0  0  0  0  0  0  0  0  0  0  0  0
    3.1242    6.3039    7.4182 H   0  0  0  0  0  0  0  0  0  0  0  0
    4.0391    1.3031    4.5806 N   0  0  0  0  0  0  0  0  0  0  0  0
    4.4868    0.1347    5.3420 C   0  0  2  0  0  0  0  0  0  0  0  0
    3.7064   -1.0471    4.9995 C   0  0  0  0  0  0  0  0  0  0  0  0
    4.2169   -2.1724    5.2066 O   0  0  0  0  0  0  0  0  0  0  0  0
    4.1908    0.4008    6.8275 C   0  0  0  0  0  0  0  0  0  0  0  0
    4.6104   -0.7301    7.6824 C   0  0  0  0  0  0  0  0  0  0  0  0
    5.9284   -0.7911    8.1666 C   0  0  0  0  0  0  0  0  0  0  0  0
    3.7807   -1.7518    8.0722 C   0  0  0  0  0  0  0  0  0  0  0  0
    6.3149   -1.8376    8.9841 C   0  0  0  0  0  0  0  0  0  0  0  0
    4.1637   -2.7926    8.8830 C   0  0  0  0  0  0  0  0  0  0  0  0
    5.4496   -2.8437    9.3503 C   0  0  0  0  0  0  0  0  0  0  0  0
    5.8264   -3.8941   10.1633 O   0  0  0  0  0  0  0  0  0  0  0  0
    4.3583    1.1473    3.6005 H   0  0  0  0  0  0  0  0  0  0  0  0
    5.5799    0.0033    5.2069 H   0  0  0  0  0  0  0  0  0  0  0  0
    3.0591    0.4140    6.8938 H   0  0  0  0  0  0  0  0  0  0  0  0
    4.5969    1.3490    7.1444 H   0  0  0  0  0  0  0  0  0  0  0  0
    6.6599   -0.0307    7.9148 H   0  0  0  0  0  0  0  0  0  0  0  0
    2.7551   -1.7007    7.7047 H   0  0  0  0  0  0  0  0  0  0  0  0
    7.3261   -1.8962    9.3629 H   0  0  0  0  0  0  0  0  0  0  0  0
    3.4227   -3.5491    9.1309 H   0  0  0  0  0  0  0  0  0  0  0  0
    5.5558   -4.8426   10.0567 H   0  0  0  0  0  0  0  0  0  0  0  0
    2.3926   -1.0968    4.4553 N   0  0  0  0  0  0  0  0  0  0  0  0
    1.7293   -2.3906    4.1685 C   0  0  2  0  0  0  0  0  0  0  0  0
    0.3958   -2.1754    3.5294 C   0  0  0  0  0  0  0  0  0  0  0  0
   -0.4257   -1.3784    4.3564 O   0  0  0  0  0  0  0  0  0  0  0  0
    1.4748   -3.1020    5.5163 C   0  0  2  0  0  0  0  0  0  0  0  0
    0.8192   -4.4398    5.3848 C   0  0  1  0  0  0  0  0  0  0  0  0
    0.6836   -5.0212    6.7736 N   0  0  2  0  0  0  0  0  0  0  0  0
    1.9584   -0.1923    4.2830 H   0  0  0  0  0  0  0  0  0  0  0  0
    2.3985   -3.0794    3.6622 H   0  0  0  0  0  0  0  0  0  0  0  0
    0.9197   -2.4572    6.2158 H   0  0  0  0  0  0  0  0  0  0  0  0
    2.4614   -3.3019    6.0067 H   0  0  0  0  0  0  0  0  0  0  0  0
   -0.1761   -4.4713    4.9418 H   0  0  0  0  0  0  0  0  0  0  0  0
    1.4623   -5.1819    4.8504 H   0  0  0  0  0  0  0  0  0  0  0  0
    0.4859   -4.2190    7.4324 H   0  0  0  0  0  0  0  0  0  0  0  0
    1.6387   -5.4648    7.0147 H   0  0  0  0  0  0  0  0  0  0  0  0
   -0.0809   -5.7482    6.7533 H   0  0  0  0  0  0  0  0  0  0  0  0
    0.4591   -1.6136    2.2408 N   0  0  0  0  0  0  0  0  0  0  0  0
   -0.7339   -1.2680    1.5735 C   0  0  2  0  0  0  0  0  0  0  0  0
   -1.6030   -2.3015    1.0164 C   0  0  0  0  0  0  0  0  0  0  0  0
   -2.5535   -1.8705    0.2705 O   0  0  0  0  0  0  0  0  0  0  0  0
   -0.4206   -0.2005    0.5027 C   0  0  0  0  0  0  0  0  0  0  0  0
   -2.0043    0.3534   -0.2378 S   0  0  0  0  0  0  0  0  0  0  0  0
    1.1280   -0.8216    2.2090 H   0  0  0  0  0  0  0  0  0  0  0  0
   -1.4160   -0.6960    2.3165 H   0  0  0  0  0  0  0  0  0  0  0  0
    0.1980   -0.7614   -0.2304 H   0  0  0  0  0  0  0  0  0  0  0  0
    0.1644    0.6039    0.9291 H   0  0  0  0  0  0  0  0  0  0  0  0
   -1.5886   -3.7041    1.1501 N   0  0  0  0  0  0  0  0  0  0  0  0
   -2.5065   -4.6433    0.5799 C   0  0  2  0  0  0  0  0  0  0  0  0
   -2.2580   -4.8285   -0.9041 C   0  0  0  0  0  0  0  0  0  0  0  0
   -2.9054   -5.5813   -1.6226 O   0  0  0  0  0  0  0  0  0  0  0  0
   -3.8969   -4.7146    1.0130 C   0  0  2  0  0  0  0  0  0  0  0  0
   -4.7908   -3.5402    0.9131 C   0  0  0  0  0  0  0  0  0  0  0  0
   -3.8920   -5.1224    2.5011 C   0  0  0  0  0  0  0  0  0  0  0  0
   -6.2228   -3.9030    1.3993 C   0  0  0  0  0  0  0  0  0  0  0  0
   -0.8015   -4.0715    1.7034 H   0  0  0  0  0  0  0  0  0  0  0  0
   -2.0706   -5.6773    0.9541 H   0  0  0  0  0  0  0  0  0  0  0  0
   -4.3496   -5.6221    0.5059 H   0  0  0  0  0  0  0  0  0  0  0  0
   -4.4446   -2.7755    1.6561 H   0  0  0  0  0  0  0  0  0  0  0  0
   -4.9088   -3.1674   -0.1088 H   0  0  0  0  0  0  0  0  0  0  0  0
   -2.9534   -5.6520    2.7506 H   0  0  0  0  0  0  0  0  0  0  0  0
   -3.9018   -4.1909    3.1265 H   0  0  0  0  0  0  0  0  0  0  0  0
   -4.7172   -5.7836    2.7464 H   0  0  0  0  0  0  0  0  0  0  0  0
   -6.9754   -3.6062    0.6226 H   0  0  0  0  0  0  0  0  0  0  0  0
   -6.3242   -4.9799    1.5661 H   0  0  0  0  0  0  0  0  0  0  0  0
   -6.4925   -3.3114    2.2943 H   0  0  0  0  0  0  0  0  0  0  0  0
   -1.2100   -4.0923   -1.5155 N   0  0  0  0  0  0  0  0  0  0  0  0
   -0.8006   -4.0872   -2.8775 C   0  0  2  0  0  0  0  0  0  0  0  0
   -1.6125   -3.2027   -3.7692 C   0  0  0  0  0  0  0  0  0  0  0  0
   -1.1608   -2.9468   -4.8775 O   0  0  0  0  0  0  0  0  0  0  0  0
   -0.5010   -5.4301   -3.4792 C   0  0  0  0  0  0  0  0  0  0  0  0
    0.6273   -6.0776   -2.6944 C   0  0  0  0  0  0  0  0  0  0  0  0
    1.8559   -5.1891   -2.6829 C   0  0  0  0  0  0  0  0  0  0  0  0
    2.3407   -4.8752   -3.9875 N   0  0  0  0  0  0  0  0  0  0  0  0
    3.4223   -3.9903   -4.1591 C   0  0  0  0  0  0  0  0  0  0  0  0
    3.8605   -3.7087   -5.4919 N   0  0  0  0  0  0  0  0  0  0  0  0
    4.0570   -3.4045   -3.2071 N   0  0  0  0  0  0  0  0  0  0  0  0
   -0.6821   -3.4928   -0.8488 H   0  0  0  0  0  0  0  0  0  0  0  0
    0.2262   -3.5684   -2.8974 H   0  0  0  0  0  0  0  0  0  0  0  0
   -1.3587   -6.1268   -3.4577 H   0  0  0  0  0  0  0  0  0  0  0  0
   -0.2287   -5.2757   -4.5217 H   0  0  0  0  0  0  0  0  0  0  0  0
    0.9070   -7.0386   -3.1781 H   0  0  0  0  0  0  0  0  0  0  0  0
    0.3230   -6.2826   -1.6664 H   0  0  0  0  0  0  0  0  0  0  0  0
    2.6637   -5.8511   -2.2180 H   0  0  0  0  0  0  0  0  0  0  0  0
    1.7960   -4.3392   -1.9851 H   0  0  0  0  0  0  0  0  0  0  0  0
    1.8891   -5.3114   -4.8159 H   0  0  0  0  0  0  0  0  0  0  0  0
    3.4128   -2.8802   -5.9733 H   0  0  0  0  0  0  0  0  0  0  0  0
    4.5867   -4.2959   -5.9509 H   0  0  0  0  0  0  0  0  0  0  0  0
    4.8450   -2.7553   -3.3315 H   0  0  0  0  0  0  0  0  0  0  0  0
    3.7989   -3.6144   -2.2001 H   0  0  0  0  0  0  0  0  0  0  0  0
   -2.8613   -2.6619   -3.4170 N   0  0  0  0  0  0  0  0  0  0  0  0
   -3.6688   -1.6823   -4.0424 C   0  0  2  0  0  0  0  0  0  0  0  0
   -5.0736   -1.8050   -3.5837 C   0  0  0  0  0  0  0  0  0  0  0  0
   -5.4507   -2.7104   -2.7795 O   0  0  0  0  0  0  0  0  0  0  0  0
   -3.7310   -1.6576   -5.5510 C   0  0  0  0  0  0  0  0  0  0  0  0
   -2.3008   -1.1812   -6.4527 S   0  0  0  0  0  0  0  0  0  0  0  0
   -3.2434   -3.0814   -2.5160 H   0  0  0  0  0  0  0  0  0  0  0  0
   -3.2060   -0.6856   -3.7347 H   0  0  0  0  0  0  0  0  0  0  0  0
   -4.6294   -1.0935   -5.9051 H   0  0  0  0  0  0  0  0  0  0  0  0
   -3.9833   -2.7265   -5.8376 H   0  0  0  0  0  0  0  0  0  0  0  0
   -6.1042   -0.9152   -4.0200 N   0  0  0  0  0  0  0  0  0  0  0  0
   -7.4662   -1.0475   -3.5934 C   0  0  2  0  0  0  0  0  0  0  0  0
   -8.3446   -1.1154   -4.7873 C   0  0  0  0  0  0  0  0  0  0  0  0
   -9.5928   -1.2812   -4.5649 O   0  0  0  0  0  0  0  0  0  0  0  0
   -7.9226    0.1426   -2.7746 C   0  0  0  0  0  0  0  0  0  0  0  0
   -7.1510    0.3609   -1.5425 C   0  0  0  0  0  0  0  0  0  0  0  0
   -6.0384    1.1853   -1.5091 C   0  0  0  0  0  0  0  0  0  0  0  0
   -7.5743   -0.2773   -0.3965 C   0  0  0  0  0  0  0  0  0  0  0  0
   -5.4021    1.3252   -0.3060 C   0  0  0  0  0  0  0  0  0  0  0  0
   -6.9192   -0.1225    0.8031 C   0  0  0  0  0  0  0  0  0  0  0  0
   -5.8131    0.6908    0.8592 C   0  0  0  0  0  0  0  0  0  0  0  0
   -5.1033    0.8899    2.0426 O   0  0  0  0  0  0  0  0  0  0  0  0
   -5.8718   -0.1395   -4.6635 H   0  0  0  0  0  0  0  0  0  0  0  0
   -7.5604   -1.9802   -2.9938 H   0  0  0  0  0  0  0  0  0  0  0  0
   -7.9254    1.0428   -3.4337 H   0  0  0  0  0  0  0  0  0  0  0  0
   -8.9933   -0.0310   -2.5003 H   0  0  0  0  0  0  0  0  0  0  0  0
   -5.7519    1.6573   -2.4148 H   0  0  0  0  0  0  0  0  0  0  0  0
   -8.4554   -0.9329   -0.3953 H   0  0  0  0  0  0  0  0  0  0  0  0
   -4.5326    1.9551   -0.2233 H   0  0  0  0  0  0  0  0  0  0  0  0
   -7.2532   -0.6359    1.7123 H   0  0  0  0  0  0  0  0  0  0  0  0
   -5.4028    1.5811    2.7101 H   0  0  0  0  0  0  0  0  0  0  0  0
   -7.9217   -1.0132   -6.1171 N   0  0  0  0  0  0  0  0  0  0  0  0
   -8.8127   -1.0810   -7.2722 C   0  0  2  0  0  0  0  0  0  0  0  0
   -8.2785   -2.1186   -8.1989 C   0  0  0  0  0  0  0  0  0  0  0  0
   -8.8658   -2.3977   -9.2793 O   0  0  0  0  0  0  0  0  0  0  0  0
   -8.6352    0.2532   -8.0126 C   0  0  0  0  0  0  0  0  0  0  0  0
   -6.9193   -0.8714   -6.3245 H   0  0  0  0  0  0  0  0  0  0  0  0
   -9.8590   -1.2217   -6.9908 H   0  0  0  0  0  0  0  0  0  0  0  0
   -7.6205    0.6598   -7.7980 H   0  0  0  0  0  0  0  0  0  0  0  0
   -8.7011    0.1143   -9.1098 H   0  0  0  0  0  0  0  0  0  0  0  0
   -9.3505    1.0078   -7.6581 H   0  0  0  0  0  0  0  0  0  0  0  0
   -7.0832   -2.8448   -7.9163 N   0  0  0  0  0  0  0  0  0  0  0  0
   -7.1703   -3.8719   -7.7760 H   0  0  0  0  0  0  0  0  0  0  0  0
   -6.1632   -2.3230   -7.8567 H   0  0  0  0  0  0  0  0  0  0  0  0
   -0.8970    2.6092   -4.1319 H   0  0  0  0  0  0  0  0  0  0  0  0
   -1.0031    0.0610   -2.6185 H   0  0  0  0  0  0  0  0  0  0  0  0
    0.5975    2.5879   -2.2340 H   0  0  0  0  0  0  0  0  0  0  0  0
    1.8570    0.3162   -3.6376 H   0  0  0  0  0  0  0  0  0  0  0  0
    0.8837    0.0131   -5.5679 H   0  0  0  0  0  0  0  0  0  0  0  0
   -0.9828   -0.3481   -4.3675 H   0  0  0  0  0  0  0  0  0  0  0  0
    3.0704    1.9274   -4.5984 H   0  0  0  0  0  0  0  0  0  0  0  0
    1.8526    3.2571   -5.8137 H   0  0  0  0  0  0  0  0  0  0  0  0
    4.3914    2.8347    1.9069 H   0  0  0  0  0  0  0  0  0  0  0  0
    2.4065    1.7046    1.9451 H   0  0  0  0  0  0  0  0  0  0  0  0
    4.0160    2.7831    5.9741 H   0  0  0  0  0  0  0  0  0  0  0  0
    6.5659    2.1353    4.8180 H   0  0  0  0  0  0  0  0  0  0  0  0
   -0.0965   -3.1801    3.5490 H   0  0  0  0  0  0  0  0  0  0  0  0
   -0.0520   -0.4690    4.4454 H   0  0  0  0  0  0  0  0  0  0  0  0
  1  2  1  0
  1 11  1  6
  1 12  1  0
  1 13  1  0
  2  3  1  0
  2  7  1  0
  3  4  1  0
  3 10  1  0
  4  5  1  0
  4 14  1  0
  5  6  1  0
  5  9  1  0
  6  7  1  0
  6 15  1  0
  7  8  1  0
  8 16  1  6
  8 17  1  0
  8171  1  0
  9 19  1  0
  9 21  1  0
 10 18  1  1
 10 20  1  0
 10118  1  0
 23 38  1  0
 38 39  1  0
 38 46  1  0
 39 40  1  0
 39 44  1  0
 39 47  1  6
 40 41  1  0
 40 48  1  1
 40 49  1  0
 41 42  1  0
 41 50  1  6
 41 51  1  0
 42 43  1  0
 42 52  1  1
 42 53  1  0
 43 54  1  1
 43 55  1  0
 44 45  1  0
 44 57  1  0
 57 58  1  0
 57 65  1  0
 58 59  1  0
 58 61  1  0
 58 66  1  6
 59 60  1  0
 59 76  1  0
 61 62  1  0
 61 67  1  6
 61 68  1  0
 62 63  1  0
 62 69  1  1
 62 70  1  0
 63 64  1  0
 63 71  1  6
 63 72  1  0
 64 73  1  6
 64 74  1  0
 64 75  1  0
 78 97  1  0
 97 98  1  0
 97104  1  0
 98 99  1  0
 98101  1  0
 98105  1  6
 99100  1  0
 99113  1  0
101102  1  0
101106  1  1
101107  1  0
102103  1  0
102108  1  6
102109  1  0
103110  1  1
103111  1  0
199207  1  0
207208  1  0
207209  1  0
 22 21  1  0
 23 22  1  0
 24 23  2  0
 25 22  1  0
 26 25  1  0
 27 26  1  0
 28 26  2  0
 29 27  2  0
 30 28  1  0
 30 29  1  0
 31 21  1  0
 22 32  1  1
 33 25  1  0
 34 25  1  0
 35 28  1  0
 36 29  1  0
 37 30  1  0
 56 43  1  0
 77 76  1  0
 78 77  1  0
 79 78  2  0
 80 77  1  0
 81 80  1  0
 82 81  2  0
 83 81  1  0
 84 82  1  0
 85 83  2  0
 86 85  1  0
 86 84  2  0
 87 86  1  0
 88 76  1  0
 77 89  1  1
 90 80  1  0
 91 80  1  0
 92 82  1  0
 93 83  1  0
 94 84  1  0
 95 85  1  0
 96 87  1  0
112103  1  0
114113  1  0
115114  1  0
116115  2  0
117114  1  0
118117  1  0
119113  1  0
114120  1  1
121117  1  0
122117  1  0
123115  1  0
124123  1  0
125124  1  0
126125  2  0
127124  1  0
128127  1  0
129127  1  0
130128  1  0
131123  1  0
124132  1  1
127133  1  6
134128  1  0
135128  1  0
136129  1  0
137129  1  0
138129  1  0
139130  1  0
140130  1  0
141130  1  0
142125  1  0
143142  1  0
144143  1  0
145144  2  0
146143  1  0
147146  1  0
148147  1  0
149148  1  0
150149  1  0
151150  1  0
152150  2  0
153142  1  0
143154  1  1
155146  1  0
156146  1  0
157147  1  0
158147  1  0
159148  1  0
160148  1  0
161149  1  0
162151  1  0
163151  1  0
164152  1  0
165152  1  0
166144  1  0
167166  1  0
168167  1  0
169168  2  0
170167  1  0
171170  1  0
172166  1  0
167173  1  1
174170  1  0
175170  1  0
176168  1  0
177176  1  0
178177  1  0
179178  2  0
180177  1  0
181180  1  0
182181  2  0
183181  1  0
184182  1  0
185183  2  0
186185  1  0
186184  2  0
187186  1  0
188176  1  0
177189  1  1
190180  1  0
191180  1  0
192182  1  0
193183  1  0
194184  1  0
195185  1  0
196187  1  0
197178  1  0
198197  1  0
199198  1  0
200199  2  0
201198  1  0
202197  1  0
198203  1  1
204201  1  0
205201  1  0
206201  1  0
  2210  1  6
  3211  1  6
  4212  1  0
  5213  1  0
  6214  1  0
  7215  1  0
  9216  1  0
 19217  1  0
 44218  1  0
 45219  1  0
 59220  1  0
 60221  1  0
 99222  1  0
100223  1  0
M  CHG  3  43   1 103   1 152   1
M  END
$$$$
BP70
     RDKit          3D

223228  0  0  0  0  0  0  0  0999 V2000
    2.2134    0.9537   -6.3396 C   0  0  2  0  0  0  0  0  0  0  0  0
    1.4777    1.9962   -5.5977 C   0  0  1  0  0  0  0  0  0  0  0  0
    0.7544    1.6531   -4.3666 C   0  0  1  0  0  0  0  0  0  0  0  0
   -0.3983    2.6864   -4.2269 C   0  0  0  0  0  0  0  0  0  0  0  0
    0.2308    4.0315   -4.1732 C   0  0  0  0  0  0  0  0  0  0  0  0
    1.7456    3.9676   -4.0872 C   0  0  0  0  0  0  0  0  0  0  0  0
    2.2963    3.2224   -5.2858 C   0  0  0  0  0  0  0  0  0  0  0  0
    3.7556    3.1540   -5.3759 C   0  0  2  0  0  0  0  0  0  0  0  0
   -0.3664    4.8098   -3.0415 C   0  0  0  0  0  0  0  0  0  0  0  0
    0.1307    0.2922   -4.2256 C   0  0  1  0  0  0  0  0  0  0  0  0
    1.7328    0.7464   -7.3482 H   0  0  0  0  0  0  0  0  0  0  0  0
    2.3044   -0.0041   -5.8569 H   0  0  0  0  0  0  0  0  0  0  0  0
    3.2618    1.2413   -6.6379 H   0  0  0  0  0  0  0  0  0  0  0  0
   -0.9067    2.3781   -3.3204 H   0  0  0  0  0  0  0  0  0  0  0  0
    2.1398    3.6520   -3.1176 H   0  0  0  0  0  0  0  0  0  0  0  0
    4.0678    4.2924   -5.2835 H   0  0  0  0  0  0  0  0  0  0  0  0
    4.0620    3.0686   -6.5146 H   0  0  0  0  0  0  0  0  0  0  0  0
   -0.4177    0.0704   -5.1678 H   0  0  0  0  0  0  0  0  0  0  0  0
    0.6851    5.2786   -2.2514 O   0  0  0  0  0  0  0  0  0  0  0  0
    0.8258   -0.5233   -4.0263 H   0  0  0  0  0  0  0  0  0  0  0  0
   -1.2156    3.9482   -2.2026 N   0  0  0  0  0  0  0  0  0  0  0  0
   -1.8215    4.6822   -1.0905 C   0  0  2  0  0  0  0  0  0  0  0  0
   -2.3172    3.7596   -0.0351 C   0  0  0  0  0  0  0  0  0  0  0  0
   -2.0695    2.5422    0.0093 O   0  0  0  0  0  0  0  0  0  0  0  0
   -2.8104    5.7126   -1.5388 C   0  0  0  0  0  0  0  0  0  0  0  0
   -3.9561    5.2045   -2.3028 C   0  0  0  0  0  0  0  0  0  0  0  0
   -5.1642    4.7665   -1.9256 N   0  0  0  0  0  0  0  0  0  0  0  0
   -3.9548    5.0993   -3.6926 C   0  0  0  0  0  0  0  0  0  0  0  0
   -5.8886    4.4036   -3.0053 C   0  0  0  0  0  0  0  0  0  0  0  0
   -5.1487    4.6049   -4.1105 N   0  0  0  0  0  0  0  0  0  0  0  0
   -2.0600    3.7264   -2.8700 H   0  0  0  0  0  0  0  0  0  0  0  0
   -0.9475    5.2884   -0.6880 H   0  0  0  0  0  0  0  0  0  0  0  0
   -2.2239    6.4836   -2.1266 H   0  0  0  0  0  0  0  0  0  0  0  0
   -3.1376    6.3199   -0.6422 H   0  0  0  0  0  0  0  0  0  0  0  0
   -3.1462    5.3612   -4.3806 H   0  0  0  0  0  0  0  0  0  0  0  0
   -6.8980    4.0097   -3.0594 H   0  0  0  0  0  0  0  0  0  0  0  0
   -5.4174    4.4237   -5.1211 H   0  0  0  0  0  0  0  0  0  0  0  0
   -3.1588    4.2187    1.0525 N   0  0  0  0  0  0  0  0  0  0  0  0
   -3.5278    3.4338    2.1791 C   0  0  1  0  0  0  0  0  0  0  0  0
   -2.9426    4.0331    3.4139 C   0  0  2  0  0  0  0  0  0  0  0  0
   -3.4231    5.3686    3.7902 C   0  0  2  0  0  0  0  0  0  0  0  0
   -3.2806    6.5581    2.9320 C   0  0  1  0  0  0  0  0  0  0  0  0
   -1.8894    6.8327    2.5425 N   0  0  2  0  0  0  0  0  0  0  0  0
   -4.9513    3.1594    2.4311 C   0  0  0  0  0  0  0  0  0  0  0  0
   -5.8122    4.2302    2.4743 O   0  0  0  0  0  0  0  0  0  0  0  0
   -3.4858    5.1647    0.9141 H   0  0  0  0  0  0  0  0  0  0  0  0
   -2.9888    2.4181    2.0573 H   0  0  0  0  0  0  0  0  0  0  0  0
   -1.8396    4.1556    3.1770 H   0  0  0  0  0  0  0  0  0  0  0  0
   -3.0275    3.3151    4.2888 H   0  0  0  0  0  0  0  0  0  0  0  0
   -3.0167    5.6195    4.8391 H   0  0  0  0  0  0  0  0  0  0  0  0
   -4.5505    5.3344    4.0539 H   0  0  0  0  0  0  0  0  0  0  0  0
   -3.9796    6.7462    2.1310 H   0  0  0  0  0  0  0  0  0  0  0  0
   -3.5563    7.4943    3.6282 H   0  0  0  0  0  0  0  0  0  0  0  0
   -1.7725    6.7210    1.4774 H   0  0  0  0  0  0  0  0  0  0  0  0
   -1.2275    6.1470    3.0261 H   0  0  0  0  0  0  0  0  0  0  0  0
   -1.6240    7.8440    2.7964 H   0  0  0  0  0  0  0  0  0  0  0  0
   -5.5233    1.9641    1.9572 N   0  0  0  0  0  0  0  0  0  0  0  0
   -5.4746    0.8073    2.7774 C   0  0  2  0  0  0  0  0  0  0  0  0
   -4.2816   -0.0575    2.6163 C   0  0  0  0  0  0  0  0  0  0  0  0
   -4.2339   -0.4840    1.3049 O   0  0  0  0  0  0  0  0  0  0  0  0
   -6.7438   -0.0144    2.7119 C   0  0  2  0  0  0  0  0  0  0  0  0
   -7.8786    0.8777    3.2125 C   0  0  1  0  0  0  0  0  0  0  0  0
   -9.1783    0.1494    3.2362 C   0  0  1  0  0  0  0  0  0  0  0  0
   -9.6656   -0.3642    1.9141 C   0  0  2  0  0  0  0  0  0  0  0  0
   -5.4378    1.7828    0.9513 H   0  0  0  0  0  0  0  0  0  0  0  0
   -5.5096    1.1663    3.8951 H   0  0  0  0  0  0  0  0  0  0  0  0
   -6.6785   -0.8315    3.4671 H   0  0  0  0  0  0  0  0  0  0  0  0
   -7.0118   -0.3775    1.7204 H   0  0  0  0  0  0  0  0  0  0  0  0
   -7.5985    1.0968    4.2792 H   0  0  0  0  0  0  0  0  0  0  0  0
   -7.9400    1.7981    2.6141 H   0  0  0  0  0  0  0  0  0  0  0  0
   -9.0847   -0.7549    3.8969 H   0  0  0  0  0  0  0  0  0  0  0  0
   -9.9841    0.7746    3.7024 H   0  0  0  0  0  0  0  0  0  0  0  0
   -9.4424   -1.4533    1.7828 H   0  0  0  0  0  0  0  0  0  0  0  0
   -9.2924    0.2842    1.1197 H   0  0  0  0  0  0  0  0  0  0  0  0
  -10.7858   -0.3020    1.8698 H   0  0  0  0  0  0  0  0  0  0  0  0
   -4.3888   -1.2704    3.4563 N   0  0  0  0  0  0  0  0  0  0  0  0
   -3.1382   -1.9907    3.5509 C   0  0  2  0  0  0  0  0  0  0  0  0
   -2.8763   -2.8034    2.3566 C   0  0  0  0  0  0  0  0  0  0  0  0
   -3.7540   -3.0062    1.5184 O   0  0  0  0  0  0  0  0  0  0  0  0
   -3.1224   -2.6742    4.8705 C   0  0  0  0  0  0  0  0  0  0  0  0
   -1.9609   -3.4722    5.2146 C   0  0  0  0  0  0  0  0  0  0  0  0
   -1.8932   -4.8492    5.0434 C   0  0  0  0  0  0  0  0  0  0  0  0
   -0.8375   -2.8061    5.7226 C   0  0  0  0  0  0  0  0  0  0  0  0
   -0.7564   -5.5590    5.3594 C   0  0  0  0  0  0  0  0  0  0  0  0
    0.3055   -3.5361    6.0387 C   0  0  0  0  0  0  0  0  0  0  0  0
    0.3453   -4.9011    5.8583 C   0  0  0  0  0  0  0  0  0  0  0  0
    1.4896   -5.5977    6.1797 O   0  0  0  0  0  0  0  0  0  0  0  0
   -5.0619   -1.9441    3.0211 H   0  0  0  0  0  0  0  0  0  0  0  0
   -2.3259   -1.2011    3.5414 H   0  0  0  0  0  0  0  0  0  0  0  0
   -4.0258   -3.3525    4.8974 H   0  0  0  0  0  0  0  0  0  0  0  0
   -3.2833   -1.8837    5.6384 H   0  0  0  0  0  0  0  0  0  0  0  0
   -2.8028   -5.3060    4.6611 H   0  0  0  0  0  0  0  0  0  0  0  0
   -0.8682   -1.7390    5.8636 H   0  0  0  0  0  0  0  0  0  0  0  0
   -0.7709   -6.6421    5.1977 H   0  0  0  0  0  0  0  0  0  0  0  0
    1.1644   -2.9830    6.4332 H   0  0  0  0  0  0  0  0  0  0  0  0
    2.2253   -5.1673    6.7047 H   0  0  0  0  0  0  0  0  0  0  0  0
   -1.6048   -3.4005    2.0913 N   0  0  0  0  0  0  0  0  0  0  0  0
   -1.1845   -4.1259    0.9431 C   0  0  2  0  0  0  0  0  0  0  0  0
   -1.0263   -3.1660   -0.2660 C   0  0  0  0  0  0  0  0  0  0  0  0
   -2.3525   -2.7235   -0.4937 O   0  0  0  0  0  0  0  0  0  0  0  0
   -1.9278   -5.3459    0.5545 C   0  0  2  0  0  0  0  0  0  0  0  0
   -1.9210   -6.4237    1.5863 C   0  0  1  0  0  0  0  0  0  0  0  0
   -2.6913   -7.5983    1.0626 N   0  0  2  0  0  0  0  0  0  0  0  0
   -0.9259   -3.2587    2.8637 H   0  0  0  0  0  0  0  0  0  0  0  0
   -0.1207   -4.4713    1.1292 H   0  0  0  0  0  0  0  0  0  0  0  0
   -1.3582   -5.7730   -0.3259 H   0  0  0  0  0  0  0  0  0  0  0  0
   -2.9353   -5.1560    0.1288 H   0  0  0  0  0  0  0  0  0  0  0  0
   -0.9013   -6.8339    1.7490 H   0  0  0  0  0  0  0  0  0  0  0  0
   -2.3716   -6.1464    2.5360 H   0  0  0  0  0  0  0  0  0  0  0  0
   -3.6940   -7.3069    0.8958 H   0  0  0  0  0  0  0  0  0  0  0  0
   -2.6583   -8.3443    1.8411 H   0  0  0  0  0  0  0  0  0  0  0  0
   -2.2211   -7.9771    0.1999 H   0  0  0  0  0  0  0  0  0  0  0  0
   -0.1969   -2.0590    0.1351 N   0  0  0  0  0  0  0  0  0  0  0  0
   -0.0695   -1.0674   -0.8520 C   0  0  2  0  0  0  0  0  0  0  0  0
    0.5340    0.2063   -0.3217 C   0  0  0  0  0  0  0  0  0  0  0  0
    0.6022    1.2633   -0.9506 O   0  0  0  0  0  0  0  0  0  0  0  0
   -1.2107   -0.8355   -1.7370 C   0  0  0  0  0  0  0  0  0  0  0  0
   -1.1345    0.4607   -2.9383 S   0  0  0  0  0  0  0  0  0  0  0  0
   -0.6417   -1.6474    0.9875 H   0  0  0  0  0  0  0  0  0  0  0  0
    0.7797   -1.4435   -1.5401 H   0  0  0  0  0  0  0  0  0  0  0  0
   -1.4827   -1.7758   -2.3070 H   0  0  0  0  0  0  0  0  0  0  0  0
   -2.1352   -0.6279   -1.1029 H   0  0  0  0  0  0  0  0  0  0  0  0
    1.1020    0.2742    1.0132 N   0  0  0  0  0  0  0  0  0  0  0  0
    1.5938    1.5330    1.5555 C   0  0  2  0  0  0  0  0  0  0  0  0
    3.0186    1.7980    1.2380 C   0  0  0  0  0  0  0  0  0  0  0  0
    3.5452    2.8641    1.4763 O   0  0  0  0  0  0  0  0  0  0  0  0
    1.2869    1.6776    3.0157 C   0  0  2  0  0  0  0  0  0  0  0  0
    1.8921    0.5886    3.8597 C   0  0  0  0  0  0  0  0  0  0  0  0
   -0.1925    1.7330    3.3069 C   0  0  0  0  0  0  0  0  0  0  0  0
    1.5022    0.8387    5.3016 C   0  0  0  0  0  0  0  0  0  0  0  0
    1.1153   -0.6255    1.4933 H   0  0  0  0  0  0  0  0  0  0  0  0
    1.0639    2.3329    0.9983 H   0  0  0  0  0  0  0  0  0  0  0  0
    1.7199    2.6206    3.4094 H   0  0  0  0  0  0  0  0  0  0  0  0
    1.5839   -0.4270    3.5327 H   0  0  0  0  0  0  0  0  0  0  0  0
    2.9978    0.7430    3.8586 H   0  0  0  0  0  0  0  0  0  0  0  0
   -0.4168    2.4780    4.1042 H   0  0  0  0  0  0  0  0  0  0  0  0
   -0.7298    1.9804    2.3747 H   0  0  0  0  0  0  0  0  0  0  0  0
   -0.5036    0.7336    3.6653 H   0  0  0  0  0  0  0  0  0  0  0  0
    1.6090    1.9256    5.4797 H   0  0  0  0  0  0  0  0  0  0  0  0
    0.4983    0.4299    5.5326 H   0  0  0  0  0  0  0  0  0  0  0  0
    2.2354    0.3384    5.9950 H   0  0  0  0  0  0  0  0  0  0  0  0
    3.8810    0.8035    0.6286 N   0  0  0  0  0  0  0  0  0  0  0  0
    5.2642    1.1831    0.2479 C   0  0  2  0  0  0  0  0  0  0  0  0
    5.2005    1.0113   -1.2884 C   0  0  0  0  0  0  0  0  0  0  0  0
    5.9641    1.6300   -2.0280 O   0  0  0  0  0  0  0  0  0  0  0  0
    6.1894    0.1150    0.7392 C   0  0  0  0  0  0  0  0  0  0  0  0
    7.6137    0.3968    0.4661 C   0  0  0  0  0  0  0  0  0  0  0  0
    8.1762    1.5662    1.1754 C   0  0  0  0  0  0  0  0  0  0  0  0
    7.7369    2.8744    0.9616 N   0  0  0  0  0  0  0  0  0  0  0  0
    7.9527    3.6930   -0.1873 C   0  0  0  0  0  0  0  0  0  0  0  0
    7.4292    5.0354   -0.2267 N   0  0  0  0  0  0  0  0  0  0  0  0
    8.6259    3.2431   -1.1967 N   0  0  0  0  0  0  0  0  0  0  0  0
    3.4650   -0.1051    0.5396 H   0  0  0  0  0  0  0  0  0  0  0  0
    5.4446    2.1904    0.5126 H   0  0  0  0  0  0  0  0  0  0  0  0
    5.8571   -0.8478    0.2870 H   0  0  0  0  0  0  0  0  0  0  0  0
    6.0667    0.0500    1.8466 H   0  0  0  0  0  0  0  0  0  0  0  0
    8.2174   -0.5071    0.8213 H   0  0  0  0  0  0  0  0  0  0  0  0
    7.8007    0.4365   -0.6417 H   0  0  0  0  0  0  0  0  0  0  0  0
    8.1597    1.3784    2.2906 H   0  0  0  0  0  0  0  0  0  0  0  0
    9.3069    1.5784    0.9557 H   0  0  0  0  0  0  0  0  0  0  0  0
    7.1645    3.3551    1.7286 H   0  0  0  0  0  0  0  0  0  0  0  0
    6.7111    5.3330   -0.9251 H   0  0  0  0  0  0  0  0  0  0  0  0
    7.7890    5.7365    0.4802 H   0  0  0  0  0  0  0  0  0  0  0  0
    9.0362    2.3013   -1.2574 H   0  0  0  0  0  0  0  0  0  0  0  0
    8.7668    3.8734   -2.0045 H   0  0  0  0  0  0  0  0  0  0  0  0
    4.2930    0.1395   -1.8839 N   0  0  0  0  0  0  0  0  0  0  0  0
    3.9840   -0.1559   -3.2757 C   0  0  2  0  0  0  0  0  0  0  0  0
    4.1088   -1.6106   -3.4965 C   0  0  0  0  0  0  0  0  0  0  0  0
    5.0553   -2.1827   -2.8568 O   0  0  0  0  0  0  0  0  0  0  0  0
    4.9971    0.5895   -4.1849 C   0  0  0  0  0  0  0  0  0  0  0  0
    4.8445    2.3035   -4.3512 S   0  0  0  0  0  0  0  0  0  0  0  0
    3.7240   -0.4340   -1.2193 H   0  0  0  0  0  0  0  0  0  0  0  0
    3.0453    0.2418   -3.6357 H   0  0  0  0  0  0  0  0  0  0  0  0
    4.8435    0.0932   -5.2002 H   0  0  0  0  0  0  0  0  0  0  0  0
    6.0332    0.2205   -3.9120 H   0  0  0  0  0  0  0  0  0  0  0  0
    3.3141   -2.4309   -4.3106 N   0  0  0  0  0  0  0  0  0  0  0  0
    3.5171   -3.8244   -4.4888 C   0  0  2  0  0  0  0  0  0  0  0  0
    2.5775   -4.4176   -5.4275 C   0  0  0  0  0  0  0  0  0  0  0  0
    2.8090   -5.6296   -5.7881 O   0  0  0  0  0  0  0  0  0  0  0  0
    3.1006   -4.4371   -3.0929 C   0  0  0  0  0  0  0  0  0  0  0  0
    3.2561   -5.8993   -3.1225 C   0  0  0  0  0  0  0  0  0  0  0  0
    2.2554   -6.7958   -3.4151 C   0  0  0  0  0  0  0  0  0  0  0  0
    4.5130   -6.4137   -2.8625 C   0  0  0  0  0  0  0  0  0  0  0  0
    2.5145   -8.1482   -3.4433 C   0  0  0  0  0  0  0  0  0  0  0  0
    4.8053   -7.7588   -2.8830 C   0  0  0  0  0  0  0  0  0  0  0  0
    3.7781   -8.6554   -3.1815 C   0  0  0  0  0  0  0  0  0  0  0  0
    4.0242  -10.0410   -3.2160 O   0  0  0  0  0  0  0  0  0  0  0  0
    2.5295   -1.9684   -4.8033 H   0  0  0  0  0  0  0  0  0  0  0  0
    4.5610   -4.1286   -4.6419 H   0  0  0  0  0  0  0  0  0  0  0  0
    3.7831   -4.0094   -2.3473 H   0  0  0  0  0  0  0  0  0  0  0  0
    2.0757   -4.1258   -2.8791 H   0  0  0  0  0  0  0  0  0  0  0  0
    1.2746   -6.3724   -3.6157 H   0  0  0  0  0  0  0  0  0  0  0  0
    5.3611   -5.7553   -2.6223 H   0  0  0  0  0  0  0  0  0  0  0  0
    1.7390   -8.8393   -3.6704 H   0  0  0  0  0  0  0  0  0  0  0  0
    5.7921   -8.1659   -2.6820 H   0  0  0  0  0  0  0  0  0  0  0  0
    4.7617  -10.3786   -2.6015 H   0  0  0  0  0  0  0  0  0  0  0  0
    1.4325   -3.8276   -5.9881 N   0  0  0  0  0  0  0  0  0  0  0  0
    0.5355   -4.5368   -6.9119 C   0  0  2  0  0  0  0  0  0  0  0  0
    0.1173   -3.6690   -8.0301 C   0  0  0  0  0  0  0  0  0  0  0  0
    0.5860   -2.4956   -8.0604 O   0  0  0  0  0  0  0  0  0  0  0  0
   -0.7484   -4.7916   -6.0964 C   0  0  0  0  0  0  0  0  0  0  0  0
    1.1541   -2.8526   -5.7768 H   0  0  0  0  0  0  0  0  0  0  0  0
    0.8932   -5.5290   -7.1834 H   0  0  0  0  0  0  0  0  0  0  0  0
   -1.6131   -4.7601   -6.7737 H   0  0  0  0  0  0  0  0  0  0  0  0
   -0.7188   -5.7703   -5.5881 H   0  0  0  0  0  0  0  0  0  0  0  0
   -0.8877   -3.9915   -5.3279 H   0  0  0  0  0  0  0  0  0  0  0  0
   -0.7745   -4.1214   -9.0374 N   0  0  0  0  0  0  0  0  0  0  0  0
   -0.7792   -3.6301   -9.9553 H   0  0  0  0  0  0  0  0  0  0  0  0
   -1.4088   -4.9283   -8.8529 H   0  0  0  0  0  0  0  0  0  0  0  0
    0.6672    2.3572   -6.3375 H   0  0  0  0  0  0  0  0  0  0  0  0
    1.3729    1.8543   -3.4799 H   0  0  0  0  0  0  0  0  0  0  0  0
   -0.9575    2.5982   -5.1692 H   0  0  0  0  0  0  0  0  0  0  0  0
    0.0429    4.6145   -5.1308 H   0  0  0  0  0  0  0  0  0  0  0  0
    2.1011    5.0356   -4.1984 H   0  0  0  0  0  0  0  0  0  0  0  0
    2.0329    3.9682   -6.1700 H   0  0  0  0  0  0  0  0  0  0  0  0
   -0.9566    5.6711   -3.4253 H   0  0  0  0  0  0  0  0  0  0  0  0
    0.9316    6.2091   -2.4905 H   0  0  0  0  0  0  0  0  0  0  0  0
   -4.9857    2.9021    3.6324 H   0  0  0  0  0  0  0  0  0  0  0  0
   -6.6024    4.1671    1.9115 H   0  0  0  0  0  0  0  0  0  0  0  0
   -3.3765    0.4247    3.0004 H   0  0  0  0  0  0  0  0  0  0  0  0
   -5.1513   -0.7104    1.0149 H   0  0  0  0  0  0  0  0  0  0  0  0
   -0.6810   -3.6605   -1.1642 H   0  0  0  0  0  0  0  0  0  0  0  0
   -2.8321   -3.3802   -1.0700 H   0  0  0  0  0  0  0  0  0  0  0  0
  1  2  1  0
  1 11  1  6
  1 12  1  0
  1 13  1  0
  2  3  1  0
  2  7  1  0
  3  4  1  0
  3 10  1  0
  4  5  1  0
  4 14  1  0
  5  6  1  0
  5  9  1  0
  6  7  1  0
  6 15  1  0
  7  8  1  0
  8 16  1  1
  8 17  1  0
  8171  1  0
  9 19  1  0
  9 21  1  0
 10 18  1  6
 10 20  1  0
 10118  1  0
 23 38  1  0
 38 39  1  0
 38 46  1  0
 39 40  1  0
 39 44  1  0
 39 47  1  6
 40 41  1  0
 40 48  1  6
 40 49  1  0
 41 42  1  0
 41 50  1  1
 41 51  1  0
 42 43  1  0
 42 52  1  6
 42 53  1  0
 43 54  1  6
 43 55  1  0
 44 45  1  0
 44 57  1  0
 57 58  1  0
 57 65  1  0
 58 59  1  0
 58 61  1  0
 58 66  1  1
 59 60  1  0
 59 76  1  0
 61 62  1  0
 61 67  1  1
 61 68  1  0
 62 63  1  0
 62 69  1  1
 62 70  1  0
 63 64  1  0
 63 71  1  1
 63 72  1  0
 64 73  1  6
 64 74  1  0
 64 75  1  0
 78 97  1  0
 97 98  1  0
 97104  1  0
 98 99  1  0
 98101  1  0
 98105  1  1
 99100  1  0
 99113  1  0
101102  1  0
101106  1  6
101107  1  0
102103  1  0
102108  1  1
102109  1  0
103110  1  6
103111  1  0
199207  1  0
207208  1  0
207209  1  0
 22 21  1  0
 23 22  1  0
 24 23  2  0
 25 22  1  0
 26 25  1  0
 27 26  1  0
 28 26  2  0
 29 27  2  0
 30 28  1  0
 30 29  1  0
 31 21  1  0
 22 32  1  1
 33 25  1  0
 34 25  1  0
 35 28  1  0
 36 29  1  0
 37 30  1  0
 56 43  1  0
 77 76  1  0
 78 77  1  0
 79 78  2  0
 80 77  1  0
 81 80  1  0
 82 81  2  0
 83 81  1  0
 84 82  1  0
 85 83  2  0
 86 85  1  0
 86 84  2  0
 87 86  1  0
 88 76  1  0
 77 89  1  1
 90 80  1  0
 91 80  1  0
 92 82  1  0
 93 83  1  0
 94 84  1  0
 95 85  1  0
 96 87  1  0
112103  1  0
114113  1  0
115114  1  0
116115  2  0
117114  1  0
118117  1  0
119113  1  0
114120  1  6
121117  1  0
122117  1  0
123115  1  0
124123  1  0
125124  1  0
126125  2  0
127124  1  0
128127  1  0
129127  1  0
130128  1  0
131123  1  0
124132  1  6
127133  1  1
134128  1  0
135128  1  0
136129  1  0
137129  1  0
138129  1  0
139130  1  0
140130  1  0
141130  1  0
142125  1  0
143142  1  0
144143  1  0
145144  2  0
146143  1  0
147146  1  0
148147  1  0
149148  1  0
150149  1  0
151150  1  0
152150  2  0
153142  1  0
143154  1  6
155146  1  0
156146  1  0
157147  1  0
158147  1  0
159148  1  0
160148  1  0
161149  1  0
162151  1  0
163151  1  0
164152  1  0
165152  1  0
166144  1  0
167166  1  0
168167  1  0
169168  2  0
170167  1  0
171170  1  0
172166  1  0
167173  1  6
174170  1  0
175170  1  0
176168  1  0
177176  1  0
178177  1  0
179178  2  0
180177  1  0
181180  1  0
182181  2  0
183181  1  0
184182  1  0
185183  2  0
186185  1  0
186184  2  0
187186  1  0
188176  1  0
177189  1  6
190180  1  0
191180  1  0
192182  1  0
193183  1  0
194184  1  0
195185  1  0
196187  1  0
197178  1  0
198197  1  0
199198  1  0
200199  2  0
201198  1  0
202197  1  0
198203  1  6
204201  1  0
205201  1  0
206201  1  0
  2210  1  6
  3211  1  1
  4212  1  0
  5213  1  0
  6214  1  0
  7215  1  0
  9216  1  0
 19217  1  0
 44218  1  0
 45219  1  0
 59220  1  0
 60221  1  0
 99222  1  0
100223  1  0
M  CHG  3  43   1 103   1 152   1
M  END
$$$$
BP70
     RDKit          3D

223228  0  0  0  0  0  0  0  0999 V2000
   -2.1994    3.8912   -1.0033 C   0  0  2  0  0  0  0  0  0  0  0  0
   -0.8350    3.8611   -0.5405 C   0  0  1  0  0  0  0  0  0  0  0  0
   -0.4290    4.5763    0.7284 C   0  0  1  0  0  0  0  0  0  0  0  0
    0.9854    5.0501    0.4411 C   0  0  0  0  0  0  0  0  0  0  0  0
    1.6061    4.5725   -0.8195 C   0  0  0  0  0  0  0  0  0  0  0  0
    1.2641    3.2073   -1.3393 C   0  0  0  0  0  0  0  0  0  0  0  0
   -0.0125    2.6385   -0.6424 C   0  0  0  0  0  0  0  0  0  0  0  0
    0.5166    1.9993    0.6077 C   0  0  2  0  0  0  0  0  0  0  0  0
    3.1496    4.5087   -0.7126 C   0  0  0  0  0  0  0  0  0  0  0  0
   -1.4320    5.5902    1.1321 C   0  0  1  0  0  0  0  0  0  0  0  0
   -2.4815    3.0082   -1.6038 H   0  0  0  0  0  0  0  0  0  0  0  0
   -2.3532    4.7255   -1.8070 H   0  0  0  0  0  0  0  0  0  0  0  0
   -2.9738    4.1997   -0.2785 H   0  0  0  0  0  0  0  0  0  0  0  0
    0.8999    6.1719    0.3593 H   0  0  0  0  0  0  0  0  0  0  0  0
    2.0483    2.5165   -1.1285 H   0  0  0  0  0  0  0  0  0  0  0  0
   -0.2073    1.1019    0.7428 H   0  0  0  0  0  0  0  0  0  0  0  0
    0.4113    2.4987    1.5520 H   0  0  0  0  0  0  0  0  0  0  0  0
   -0.8658    6.5472    1.3764 H   0  0  0  0  0  0  0  0  0  0  0  0
    3.6751    5.7878   -0.7426 O   0  0  0  0  0  0  0  0  0  0  0  0
   -2.0795    5.9276    0.2821 H   0  0  0  0  0  0  0  0  0  0  0  0
    3.6490    3.6401   -1.7835 N   0  0  0  0  0  0  0  0  0  0  0  0
    3.5908    4.1334   -3.0952 C   0  0  2  0  0  0  0  0  0  0  0  0
    3.1869    3.0675   -4.0735 C   0  0  0  0  0  0  0  0  0  0  0  0
    3.1503    3.3724   -5.2772 O   0  0  0  0  0  0  0  0  0  0  0  0
    4.9863    4.5181   -3.5796 C   0  0  0  0  0  0  0  0  0  0  0  0
    5.6894    5.5219   -2.8137 C   0  0  0  0  0  0  0  0  0  0  0  0
    5.6322    6.8484   -2.9819 N   0  0  0  0  0  0  0  0  0  0  0  0
    6.6182    5.3387   -1.7742 C   0  0  0  0  0  0  0  0  0  0  0  0
    6.4600    7.4525   -2.1125 C   0  0  0  0  0  0  0  0  0  0  0  0
    7.0741    6.5265   -1.3624 N   0  0  0  0  0  0  0  0  0  0  0  0
    4.5858    3.2494   -1.5323 H   0  0  0  0  0  0  0  0  0  0  0  0
    2.9266    5.0309   -3.2213 H   0  0  0  0  0  0  0  0  0  0  0  0
    5.5421    3.5637   -3.6900 H   0  0  0  0  0  0  0  0  0  0  0  0
    4.8942    4.9094   -4.6333 H   0  0  0  0  0  0  0  0  0  0  0  0
    6.9128    4.3949   -1.3773 H   0  0  0  0  0  0  0  0  0  0  0  0
    6.6081    8.5167   -2.0291 H   0  0  0  0  0  0  0  0  0  0  0  0
    7.7684    6.7775   -0.6192 H   0  0  0  0  0  0  0  0  0  0  0  0
    2.8393    1.7391   -3.7726 N   0  0  0  0  0  0  0  0  0  0  0  0
    2.3556    0.7284   -4.6880 C   0  0  1  0  0  0  0  0  0  0  0  0
    2.7581   -0.6087   -4.1909 C   0  0  2  0  0  0  0  0  0  0  0  0
    4.2657   -0.7741   -4.0823 C   0  0  2  0  0  0  0  0  0  0  0  0
    4.9269   -0.5786   -5.4309 C   0  0  1  0  0  0  0  0  0  0  0  0
    6.3677   -0.7754   -5.2254 N   0  0  2  0  0  0  0  0  0  0  0  0
    0.8446    0.8181   -4.8585 C   0  0  0  0  0  0  0  0  0  0  0  0
    0.2037    0.7589   -3.6341 O   0  0  0  0  0  0  0  0  0  0  0  0
    2.9774    1.4481   -2.7979 H   0  0  0  0  0  0  0  0  0  0  0  0
    2.7836    0.9063   -5.7235 H   0  0  0  0  0  0  0  0  0  0  0  0
    2.3584   -1.4555   -4.7846 H   0  0  0  0  0  0  0  0  0  0  0  0
    2.3920   -0.6719   -3.1198 H   0  0  0  0  0  0  0  0  0  0  0  0
    4.4212   -1.8409   -3.8124 H   0  0  0  0  0  0  0  0  0  0  0  0
    4.7052   -0.1619   -3.3013 H   0  0  0  0  0  0  0  0  0  0  0  0
    4.5461   -1.3313   -6.1201 H   0  0  0  0  0  0  0  0  0  0  0  0
    4.8233    0.4702   -5.7811 H   0  0  0  0  0  0  0  0  0  0  0  0
    6.5040   -1.6162   -4.5719 H   0  0  0  0  0  0  0  0  0  0  0  0
    6.7838    0.0934   -4.7831 H   0  0  0  0  0  0  0  0  0  0  0  0
    6.8337   -0.9843   -6.1622 H   0  0  0  0  0  0  0  0  0  0  0  0
    0.3068   -0.3445   -5.6046 N   0  0  0  0  0  0  0  0  0  0  0  0
   -1.0547   -0.1409   -5.8641 C   0  0  2  0  0  0  0  0  0  0  0  0
   -2.1700   -0.5542   -5.0029 C   0  0  0  0  0  0  0  0  0  0  0  0
   -3.3238   -0.1149   -5.7412 O   0  0  0  0  0  0  0  0  0  0  0  0
   -1.4092   -0.5193   -7.2790 C   0  0  2  0  0  0  0  0  0  0  0  0
   -1.1178   -1.9273   -7.5825 C   0  0  1  0  0  0  0  0  0  0  0  0
    0.2848   -2.4013   -7.5594 C   0  0  1  0  0  0  0  0  0  0  0  0
    1.1798   -1.6586   -8.5379 C   0  0  2  0  0  0  0  0  0  0  0  0
    0.3717   -1.1110   -4.8661 H   0  0  0  0  0  0  0  0  0  0  0  0
   -1.2184    1.0467   -5.9205 H   0  0  0  0  0  0  0  0  0  0  0  0
   -0.9820    0.2025   -8.0179 H   0  0  0  0  0  0  0  0  0  0  0  0
   -2.5279   -0.3748   -7.4405 H   0  0  0  0  0  0  0  0  0  0  0  0
   -1.6892   -2.6390   -6.8971 H   0  0  0  0  0  0  0  0  0  0  0  0
   -1.5412   -2.2301   -8.5981 H   0  0  0  0  0  0  0  0  0  0  0  0
    0.8032   -2.4451   -6.6079 H   0  0  0  0  0  0  0  0  0  0  0  0
    0.3282   -3.4819   -7.9373 H   0  0  0  0  0  0  0  0  0  0  0  0
    1.5209   -0.7199   -8.0905 H   0  0  0  0  0  0  0  0  0  0  0  0
    0.7376   -1.5873   -9.5399 H   0  0  0  0  0  0  0  0  0  0  0  0
    2.0991   -2.3134   -8.6554 H   0  0  0  0  0  0  0  0  0  0  0  0
   -2.2933   -0.2488   -3.6428 N   0  0  0  0  0  0  0  0  0  0  0  0
   -3.6787   -0.4079   -3.1166 C   0  0  2  0  0  0  0  0  0  0  0  0
   -3.6864    0.1944   -1.7870 C   0  0  0  0  0  0  0  0  0  0  0  0
   -2.5948    0.4694   -1.2550 O   0  0  0  0  0  0  0  0  0  0  0  0
   -4.1304   -1.8024   -3.1333 C   0  0  0  0  0  0  0  0  0  0  0  0
   -5.5105   -2.0814   -2.6519 C   0  0  0  0  0  0  0  0  0  0  0  0
   -5.8149   -2.5390   -1.3875 C   0  0  0  0  0  0  0  0  0  0  0  0
   -6.5255   -1.8197   -3.5704 C   0  0  0  0  0  0  0  0  0  0  0  0
   -7.1714   -2.7211   -1.0877 C   0  0  0  0  0  0  0  0  0  0  0  0
   -7.8563   -2.0045   -3.2565 C   0  0  0  0  0  0  0  0  0  0  0  0
   -8.1639   -2.4594   -2.0004 C   0  0  0  0  0  0  0  0  0  0  0  0
   -9.5250   -2.6350   -1.7203 O   0  0  0  0  0  0  0  0  0  0  0  0
   -1.7767   -0.9747   -3.0446 H   0  0  0  0  0  0  0  0  0  0  0  0
   -4.2709    0.2825   -3.7695 H   0  0  0  0  0  0  0  0  0  0  0  0
   -3.9541   -2.3269   -4.1243 H   0  0  0  0  0  0  0  0  0  0  0  0
   -3.4831   -2.4353   -2.4520 H   0  0  0  0  0  0  0  0  0  0  0  0
   -5.0250   -2.7342   -0.6871 H   0  0  0  0  0  0  0  0  0  0  0  0
   -6.3241   -1.4604   -4.5762 H   0  0  0  0  0  0  0  0  0  0  0  0
   -7.4760   -3.0768   -0.1080 H   0  0  0  0  0  0  0  0  0  0  0  0
   -8.6517   -1.7986   -3.9733 H   0  0  0  0  0  0  0  0  0  0  0  0
  -10.1397   -1.8086   -1.8086 H   0  0  0  0  0  0  0  0  0  0  0  0
   -4.8116    0.5261   -0.9743 N   0  0  0  0  0  0  0  0  0  0  0  0
   -4.7172    1.3430    0.2279 C   0  0  2  0  0  0  0  0  0  0  0  0
   -4.1172    0.7083    1.4176 C   0  0  0  0  0  0  0  0  0  0  0  0
   -4.9573   -0.3894    1.7598 O   0  0  0  0  0  0  0  0  0  0  0  0
   -6.0843    1.9316    0.4862 C   0  0  2  0  0  0  0  0  0  0  0  0
   -6.5906    2.7384   -0.6544 C   0  0  1  0  0  0  0  0  0  0  0  0
   -5.7553    3.8795   -1.0269 N   0  0  2  0  0  0  0  0  0  0  0  0
   -5.7101    0.1805   -1.2826 H   0  0  0  0  0  0  0  0  0  0  0  0
   -4.0416    2.1594   -0.0514 H   0  0  0  0  0  0  0  0  0  0  0  0
   -6.0927    2.6097    1.3816 H   0  0  0  0  0  0  0  0  0  0  0  0
   -6.7506    1.0529    0.7050 H   0  0  0  0  0  0  0  0  0  0  0  0
   -6.7065    2.1599   -1.5972 H   0  0  0  0  0  0  0  0  0  0  0  0
   -7.5722    3.1759   -0.3280 H   0  0  0  0  0  0  0  0  0  0  0  0
   -4.9644    3.5418   -1.6745 H   0  0  0  0  0  0  0  0  0  0  0  0
   -5.3811    4.3757   -0.1778 H   0  0  0  0  0  0  0  0  0  0  0  0
   -6.3650    4.5704   -1.5960 H   0  0  0  0  0  0  0  0  0  0  0  0
   -3.8495    1.4412    2.5473 N   0  0  0  0  0  0  0  0  0  0  0  0
   -2.8435    2.4356    2.6903 C   0  0  2  0  0  0  0  0  0  0  0  0
   -2.2519    2.2866    4.1060 C   0  0  0  0  0  0  0  0  0  0  0  0
   -2.7304    1.4350    4.8586 O   0  0  0  0  0  0  0  0  0  0  0  0
   -3.4201    3.8121    2.5715 C   0  0  0  0  0  0  0  0  0  0  0  0
   -2.3881    5.2269    2.6035 S   0  0  0  0  0  0  0  0  0  0  0  0
   -4.3754    1.2278    3.4235 H   0  0  0  0  0  0  0  0  0  0  0  0
   -2.0123    2.2595    2.0231 H   0  0  0  0  0  0  0  0  0  0  0  0
   -4.1154    3.8906    3.4864 H   0  0  0  0  0  0  0  0  0  0  0  0
   -4.0392    3.8163    1.6669 H   0  0  0  0  0  0  0  0  0  0  0  0
   -1.1947    3.0675    4.5852 N   0  0  0  0  0  0  0  0  0  0  0  0
   -0.5215    3.0407    5.8527 C   0  0  2  0  0  0  0  0  0  0  0  0
    0.7387    2.2582    5.7947 C   0  0  0  0  0  0  0  0  0  0  0  0
    1.7431    2.4480    6.4835 O   0  0  0  0  0  0  0  0  0  0  0  0
   -1.3356    2.8054    7.0691 C   0  0  2  0  0  0  0  0  0  0  0  0
   -2.3594    3.8217    7.4286 C   0  0  0  0  0  0  0  0  0  0  0  0
   -0.4816    2.5913    8.3132 C   0  0  0  0  0  0  0  0  0  0  0  0
   -3.4465    4.1261    6.4780 C   0  0  0  0  0  0  0  0  0  0  0  0
   -0.8503    3.7752    3.8956 H   0  0  0  0  0  0  0  0  0  0  0  0
   -0.1748    4.1304    5.9978 H   0  0  0  0  0  0  0  0  0  0  0  0
   -1.8874    1.8330    6.9299 H   0  0  0  0  0  0  0  0  0  0  0  0
   -1.7899    4.7835    7.6539 H   0  0  0  0  0  0  0  0  0  0  0  0
   -2.7987    3.5356    8.4275 H   0  0  0  0  0  0  0  0  0  0  0  0
   -0.0312    3.5243    8.6973 H   0  0  0  0  0  0  0  0  0  0  0  0
   -1.1781    2.2243    9.1041 H   0  0  0  0  0  0  0  0  0  0  0  0
    0.2535    1.7861    8.1784 H   0  0  0  0  0  0  0  0  0  0  0  0
   -4.0855    3.2577    6.3162 H   0  0  0  0  0  0  0  0  0  0  0  0
   -3.1224    4.5851    5.5349 H   0  0  0  0  0  0  0  0  0  0  0  0
   -4.0601    4.9552    6.9825 H   0  0  0  0  0  0  0  0  0  0  0  0
    0.7949    1.1819    4.8781 N   0  0  0  0  0  0  0  0  0  0  0  0
    1.9794    0.4347    4.4875 C   0  0  2  0  0  0  0  0  0  0  0  0
    1.5788   -0.2277    3.2300 C   0  0  0  0  0  0  0  0  0  0  0  0
    0.3296   -0.1492    2.9839 O   0  0  0  0  0  0  0  0  0  0  0  0
    2.5156   -0.5069    5.5039 C   0  0  0  0  0  0  0  0  0  0  0  0
    1.6461   -1.6077    5.9944 C   0  0  0  0  0  0  0  0  0  0  0  0
    2.5080   -2.3847    6.9951 C   0  0  0  0  0  0  0  0  0  0  0  0
    1.7398   -3.4652    7.5361 N   0  0  0  0  0  0  0  0  0  0  0  0
    0.6281   -3.2979    8.3939 C   0  0  0  0  0  0  0  0  0  0  0  0
   -0.0185   -4.5152    8.8305 N   0  0  0  0  0  0  0  0  0  0  0  0
    0.1703   -2.1731    8.7983 N   0  0  0  0  0  0  0  0  0  0  0  0
   -0.1066    0.9102    4.4675 H   0  0  0  0  0  0  0  0  0  0  0  0
    2.8375    1.1541    4.3162 H   0  0  0  0  0  0  0  0  0  0  0  0
    3.3891   -1.0171    4.9963 H   0  0  0  0  0  0  0  0  0  0  0  0
    3.0035    0.0646    6.3292 H   0  0  0  0  0  0  0  0  0  0  0  0
    1.4849   -2.3841    5.1688 H   0  0  0  0  0  0  0  0  0  0  0  0
    0.6520   -1.3664    6.3245 H   0  0  0  0  0  0  0  0  0  0  0  0
    3.3377   -2.7891    6.3896 H   0  0  0  0  0  0  0  0  0  0  0  0
    2.8874   -1.6893    7.7873 H   0  0  0  0  0  0  0  0  0  0  0  0
    2.0186   -4.4510    7.2690 H   0  0  0  0  0  0  0  0  0  0  0  0
   -1.0528   -4.6075    8.8097 H   0  0  0  0  0  0  0  0  0  0  0  0
    0.6325   -5.2577    9.1621 H   0  0  0  0  0  0  0  0  0  0  0  0
    0.5372   -1.2345    8.5651 H   0  0  0  0  0  0  0  0  0  0  0  0
   -0.6516   -2.1968    9.4348 H   0  0  0  0  0  0  0  0  0  0  0  0
    2.3325   -0.9145    2.2821 N   0  0  0  0  0  0  0  0  0  0  0  0
    1.5640   -1.4010    1.0822 C   0  0  2  0  0  0  0  0  0  0  0  0
    1.9348   -2.8123    0.8620 C   0  0  0  0  0  0  0  0  0  0  0  0
    3.0035   -3.1655    1.5069 O   0  0  0  0  0  0  0  0  0  0  0  0
    2.0737   -0.5186   -0.0796 C   0  0  0  0  0  0  0  0  0  0  0  0
    2.1151    1.1844    0.4301 S   0  0  0  0  0  0  0  0  0  0  0  0
    3.3129   -1.0601    2.4159 H   0  0  0  0  0  0  0  0  0  0  0  0
    0.5169   -1.3092    1.2305 H   0  0  0  0  0  0  0  0  0  0  0  0
    3.0226   -0.9469   -0.4217 H   0  0  0  0  0  0  0  0  0  0  0  0
    1.3346   -0.6448   -0.8828 H   0  0  0  0  0  0  0  0  0  0  0  0
    1.2321   -3.7365    0.0496 N   0  0  0  0  0  0  0  0  0  0  0  0
    1.5927   -5.1185   -0.1163 C   0  0  2  0  0  0  0  0  0  0  0  0
    2.2331   -5.7826    1.0461 C   0  0  0  0  0  0  0  0  0  0  0  0
    3.0099   -6.7599    0.7878 O   0  0  0  0  0  0  0  0  0  0  0  0
    2.0366   -5.5665   -1.4508 C   0  0  0  0  0  0  0  0  0  0  0  0
    0.9642   -5.3925   -2.4898 C   0  0  0  0  0  0  0  0  0  0  0  0
    0.0849   -6.4835   -2.5834 C   0  0  0  0  0  0  0  0  0  0  0  0
    0.8290   -4.2962   -3.2681 C   0  0  0  0  0  0  0  0  0  0  0  0
   -0.9627   -6.4836   -3.4799 C   0  0  0  0  0  0  0  0  0  0  0  0
   -0.2308   -4.2815   -4.1823 C   0  0  0  0  0  0  0  0  0  0  0  0
   -1.1052   -5.3728   -4.2723 C   0  0  0  0  0  0  0  0  0  0  0  0
   -2.1624   -5.3609   -5.1830 O   0  0  0  0  0  0  0  0  0  0  0  0
    0.3925   -3.3705   -0.4515 H   0  0  0  0  0  0  0  0  0  0  0  0
    0.5221   -5.6683   -0.0192 H   0  0  0  0  0  0  0  0  0  0  0  0
    2.2837   -6.6458   -1.4177 H   0  0  0  0  0  0  0  0  0  0  0  0
    2.9750   -5.0708   -1.7971 H   0  0  0  0  0  0  0  0  0  0  0  0
    0.2099   -7.3603   -1.9527 H   0  0  0  0  0  0  0  0  0  0  0  0
    1.5096   -3.4899   -3.1826 H   0  0  0  0  0  0  0  0  0  0  0  0
   -1.6508   -7.3152   -3.5611 H   0  0  0  0  0  0  0  0  0  0  0  0
   -0.4184   -3.4476   -4.8365 H   0  0  0  0  0  0  0  0  0  0  0  0
   -2.5259   -6.2053   -5.6101 H   0  0  0  0  0  0  0  0  0  0  0  0
    2.0508   -5.4333    2.3888 N   0  0  0  0  0  0  0  0  0  0  0  0
    2.7111   -6.1034    3.5040 C   0  0  2  0  0  0  0  0  0  0  0  0
    1.6877   -6.6658    4.4017 C   0  0  0  0  0  0  0  0  0  0  0  0
    2.0385   -7.3043    5.4499 O   0  0  0  0  0  0  0  0  0  0  0  0
    3.6440   -5.1465    4.2289 C   0  0  0  0  0  0  0  0  0  0  0  0
    1.3698   -4.6656    2.6878 H   0  0  0  0  0  0  0  0  0  0  0  0
    3.2917   -6.9332    3.0592 H   0  0  0  0  0  0  0  0  0  0  0  0
    3.3070   -4.1215    4.0514 H   0  0  0  0  0  0  0  0  0  0  0  0
    3.5708   -5.4155    5.3252 H   0  0  0  0  0  0  0  0  0  0  0  0
    4.6762   -5.3749    3.9190 H   0  0  0  0  0  0  0  0  0  0  0  0
    0.2957   -6.5188    4.1318 N   0  0  0  0  0  0  0  0  0  0  0  0
   -0.2017   -7.0281    3.3676 H   0  0  0  0  0  0  0  0  0  0  0  0
   -0.2349   -5.8507    4.7602 H   0  0  0  0  0  0  0  0  0  0  0  0
   -0.3213    4.5850   -1.3362 H   0  0  0  0  0  0  0  0  0  0  0  0
   -0.3328    3.9269    1.6192 H   0  0  0  0  0  0  0  0  0  0  0  0
    1.6736    4.8567    1.2876 H   0  0  0  0  0  0  0  0  0  0  0  0
    1.4656    5.3194   -1.6670 H   0  0  0  0  0  0  0  0  0  0  0  0
    1.0200    3.2886   -2.4083 H   0  0  0  0  0  0  0  0  0  0  0  0
   -0.4456    1.9150   -1.2896 H   0  0  0  0  0  0  0  0  0  0  0  0
    3.4339    4.0402    0.2429 H   0  0  0  0  0  0  0  0  0  0  0  0
    3.0519    6.4273   -1.1716 H   0  0  0  0  0  0  0  0  0  0  0  0
    0.6265    1.7761   -5.3307 H   0  0  0  0  0  0  0  0  0  0  0  0
   -0.3029    1.6147   -3.4922 H   0  0  0  0  0  0  0  0  0  0  0  0
   -2.2509   -1.6844   -5.1014 H   0  0  0  0  0  0  0  0  0  0  0  0
   -3.9051   -0.8425   -5.9925 H   0  0  0  0  0  0  0  0  0  0  0  0
   -3.1289    0.2781    1.0557 H   0  0  0  0  0  0  0  0  0  0  0  0
   -5.2687   -0.2914    2.6915 H   0  0  0  0  0  0  0  0  0  0  0  0
  1  2  1  0
  1 11  1  6
  1 12  1  0
  1 13  1  0
  2  3  1  0
  2  7  1  0
  3  4  1  0
  3 10  1  0
  4  5  1  0
  4 14  1  0
  5  6  1  0
  5  9  1  0
  6  7  1  0
  6 15  1  0
  7  8  1  0
  8 16  1  1
  8 17  1  0
  8171  1  0
  9 19  1  0
  9 21  1  0
 10 18  1  1
 10 20  1  0
 10118  1  0
 23 38  1  0
 38 39  1  0
 38 46  1  0
 39 40  1  0
 39 44  1  0
 39 47  1  6
 40 41  1  0
 40 48  1  6
 40 49  1  0
 41 42  1  0
 41 50  1  1
 41 51  1  0
 42 43  1  0
 42 52  1  6
 42 53  1  0
 43 54  1  1
 43 55  1  0
 44 45  1  0
 44 57  1  0
 57 58  1  0
 57 65  1  0
 58 59  1  0
 58 61  1  0
 58 66  1  6
 59 60  1  0
 59 76  1  0
 61 62  1  0
 61 67  1  6
 61 68  1  0
 62 63  1  0
 62 69  1  1
 62 70  1  0
 63 64  1  0
 63 71  1  1
 63 72  1  0
 64 73  1  1
 64 74  1  0
 64 75  1  0
 78 97  1  0
 97 98  1  0
 97104  1  0
 98 99  1  0
 98101  1  0
 98105  1  6
 99100  1  0
 99113  1  0
101102  1  0
101106  1  1
101107  1  0
102103  1  0
102108  1  6
102109  1  0
103110  1  6
103111  1  0
199207  1  0
207208  1  0
207209  1  0
 22 21  1  0
 23 22  1  0
 24 23  2  0
 25 22  1  0
 26 25  1  0
 27 26  1  0
 28 26  2  0
 29 27  2  0
 30 28  1  0
 30 29  1  0
 31 21  1  0
 22 32  1  1
 33 25  1  0
 34 25  1  0
 35 28  1  0
 36 29  1  0
 37 30  1  0
 56 43  1  0
 77 76  1  0
 78 77  1  0
 79 78  2  0
 80 77  1  0
 81 80  1  0
 82 81  2  0
 83 81  1  0
 84 82  1  0
 85 83  2  0
 86 85  1  0
 86 84  2  0
 87 86  1  0
 88 76  1  0
 77 89  1  6
 90 80  1  0
 91 80  1  0
 92 82  1  0
 93 83  1  0
 94 84  1  0
 95 85  1  0
 96 87  1  0
112103  1  0
114113  1  0
115114  1  0
116115  2  0
117114  1  0
118117  1  0
119113  1  0
114120  1  6
121117  1  0
122117  1  0
123115  1  0
124123  1  0
125124  1  0
126125  2  0
127124  1  0
128127  1  0
129127  1  0
130128  1  0
131123  1  0
124132  1  1
127133  1  6
134128  1  0
135128  1  0
136129  1  0
137129  1  0
138129  1  0
139130  1  0
140130  1  0
141130  1  0
142125  1  0
143142  1  0
144143  1  0
145144  2  0
146143  1  0
147146  1  0
148147  1  0
149148  1  0
150149  1  0
151150  1  0
152150  2  0
153142  1  0
143154  1  6
155146  1  0
156146  1  0
157147  1  0
158147  1  0
159148  1  0
160148  1  0
161149  1  0
162151  1  0
163151  1  0
164152  1  0
165152  1  0
166144  1  0
167166  1  0
168167  1  0
169168  2  0
170167  1  0
171170  1  0
172166  1  0
167173  1  1
174170  1  0
175170  1  0
176168  1  0
177176  1  0
178177  1  0
179178  2  0
180177  1  0
181180  1  0
182181  2  0
183181  1  0
184182  1  0
185183  2  0
186185  1  0
186184  2  0
187186  1  0
188176  1  0
177189  1  6
190180  1  0
191180  1  0
192182  1  0
193183  1  0
194184  1  0
195185  1  0
196187  1  0
197178  1  0
198197  1  0
199198  1  0
200199  2  0
201198  1  0
202197  1  0
198203  1  6
204201  1  0
205201  1  0
206201  1  0
  2210  1  6
  3211  1  1
  4212  1  0
  5213  1  0
  6214  1  0
  7215  1  0
  9216  1  0
 19217  1  0
 44218  1  0
 45219  1  0
 59220  1  0
 60221  1  0
 99222  1  0
100223  1  0
M  CHG  3  43   1 103   1 152   1
M  END
$$$$
