@<TRIPOS>MOLECULE
/Users/xuhangdai/Desktop/Projects/OptimalTransport/extra_bio_ligands_CSD/CSD_GAYLOH_ATP.pdb
 31 33 0 0 0
SMALL
GASTEIGER

@<TRIPOS>ATOM
      1  P         10.2830    1.5450    2.5150 P.3    10  UNL10       0.2189
      2  P         11.8620   -0.8080    3.1980 P.3    10  UNL10       0.2277
      3  P         14.2220    0.7880    2.4450 P.3    10  UNL10       0.5373
      4  O          8.7890    1.7200    2.9330 O.3    10  UNL10      -0.3112
      5  O         11.0280    2.7120    3.0800 O.3    10  UNL10      -0.4371
      6  O         10.3930    1.2150    1.0980 O.2    10  UNL10      -0.5170
      7  O         10.6870    0.2380    3.3160 O.3    10  UNL10      -0.2700
      8  O         11.7130   -1.7360    4.3470 O.3    10  UNL10      -0.4368
      9  O         11.8940   -1.3420    1.8410 O.2    10  UNL10      -0.5168
     10  O         13.1680    0.0670    3.4470 O.3    10  UNL10      -0.2258
     11  O         15.3160   -0.2220    2.2690 O.3    10  UNL10      -0.1143
     12  O         13.5250    1.0880    1.1580 O.2    10  UNL10      -0.2221
     13  O         14.5690    1.9880    3.2010 O.3    10  UNL10      -0.1143
     14  C          6.6370    2.3110    5.3780 C.3    10  UNL10       0.2409
     15  C          6.6640    3.3320    4.2700 C.3    10  UNL10       0.2337
     16  C          6.0180    2.6550    3.1660 C.3    10  UNL10       0.2161
     17  C          6.4400    1.2080    3.3190 C.3    10  UNL10       0.1801
     18  C          7.7790    0.6930    2.5980 C.3    10  UNL10       0.1813
     19  O          5.9790    4.5310    4.7740 O.3    10  UNL10      -0.2155
     20  O          4.5970    2.6200    3.2680 O.3    10  UNL10      -0.2175
     21  O          6.7210    1.0430    4.7550 O.3    10  UNL10      -0.3306
     22  N          8.0780    2.1890   10.3020 N.ar   10  UNL10      -0.2040
     23  C          6.8490    2.1620    9.7080 C.ar   10  UNL10       0.2016
     24  N          6.5320    2.1960    8.3970 N.ar   10  UNL10      -0.2048
     25  C          7.6190    2.3560    7.7070 C.ar   10  UNL10       0.1692
     26  C          8.9530    2.3380    8.1540 C.ar   10  UNL10       0.1518
     27  C          9.1750    2.2760    9.5490 C.ar   10  UNL10       0.1919
     28  N         10.3470    2.3100   10.1260 N.pl3  10  UNL10      -0.1054
     29  N          9.8470    2.4600    7.0750 N.ar   10  UNL10      -0.2193
     30  C          9.0950    2.4940    6.0290 C.ar   10  UNL10       0.1816
     31  N          7.7240    2.4310    6.3190 N.ar   10  UNL10      -0.2693
@<TRIPOS>BOND
     1     1     6    2
     2     1     4    1
     3     1     5    1
     4     1     7    1
     5     2     9    2
     6     2     7    1
     7     2    10    1
     8     2     8    1
     9     3    12    2
    10     3    11    1
    11     3    13    1
    12     3    10    1
    13     4    18    1
    14    14    15    1
    15    14    21    1
    16    14    31    1
    17    15    16    1
    18    15    19    1
    19    16    20    1
    20    16    17    1
    21    17    18    1
    22    17    21    1
    23    22    27   ar
    24    22    23   ar
    25    23    24   ar
    26    24    25   ar
    27    25    31   ar
    28    25    26   ar
    29    26    29   ar
    30    26    27   ar
    31    27    28    1
    32    29    30   ar
    33    30    31   ar
