@<TRIPOS>MOLECULE
/Users/xuhangdai/Desktop/Projects/OptimalTransport/extra_bio_ligands_CSD/CSD_AJIGUZ_imatinib.pdb
 37 41 0 0 0
SMALL
GASTEIGER

@<TRIPOS>ATOM
      1  O          5.4990    1.3350    3.6550 O.2     2  UNL2       -0.2680
      2  N          4.5860   -0.7330    3.9830 N.am    2  UNL2       -0.1754
      3  N          9.2720    0.7760    9.3890 N.3     2  UNL2       -0.2665
      4  N          0.4420    1.8080    3.5660 N.pl3   2  UNL2       -0.1464
      5  N          1.1460    2.0070    5.7730 N.2     2  UNL2       -0.1992
      6  N         -0.5340    3.4390    4.8370 N.2     2  UNL2       -0.1791
      7  N          3.3350    0.3720    8.8480 N.ar    2  UNL2       -0.2426
      8  N          9.0620    2.3700   11.7950 N.3     2  UNL2       -0.2691
      9  C          2.5460    0.5530    3.7350 C.ar    2  UNL2        0.0336
     10  C          5.5030    0.2440    4.2240 C.2     2  UNL2        0.2690
     11  C          6.1560   -0.8280    6.4090 C.ar    2  UNL2        0.0043
     12  C          6.5050   -0.0660    5.2990 C.ar    2  UNL2        0.0554
     13  C          1.0240    2.6370    6.9510 C.3     2  UNL2        0.1618
     14  C          1.9230    2.1510    8.0250 C.ar    2  UNL2        0.0240
     15  C          7.7700    0.5280    5.2630 C.ar    2  UNL2        0.0043
     16  C          0.3690    2.4380    4.7790 C.1     2  UNL2        0.1120
     17  C          3.3500   -0.4980    3.3130 C.ar    2  UNL2        0.0750
     18  C          8.2950   -0.3860    7.4430 C.ar    2  UNL2       -0.0061
     19  C          7.9730    1.0770   10.0030 C.3     2  UNL2        0.0899
     20  C         10.2730    0.6810   10.4560 C.3     2  UNL2        0.0899
     21  C          2.9010   -1.3600    2.3210 C.ar    2  UNL2        0.0164
     22  C          7.0400   -0.9850    7.4700 C.ar    2  UNL2       -0.0028
     23  C          2.5100    0.8900    7.9270 C.ar    2  UNL2        0.0968
     24  C          1.2810    0.7410    3.1820 C.ar    2  UNL2        0.0790
     25  C          2.2090    2.9140    9.1550 C.ar    2  UNL2        0.0011
     26  C          1.6310   -1.1770    1.7850 C.ar    2  UNL2       -0.0016
     27  C          9.2300   -0.4830    8.6270 C.3     2  UNL2        0.0992
     28  C          0.7960   -0.1480    2.2020 C.ar    2  UNL2       -0.0057
     29  C         10.3860    1.9960   11.2020 C.3     2  UNL2        0.0897
     30  C          8.6520    0.3580    6.3200 C.ar    2  UNL2       -0.0028
     31  C          3.0780    2.4060   10.1040 C.ar    2  UNL2        0.0204
     32  C          3.6170    1.1480    9.9070 C.ar    2  UNL2        0.0989
     33  C          8.0190    2.4050   10.7230 C.3     2  UNL2        0.0897
     34  C         -0.6010   -0.0130    1.6570 C.3     2  UNL2        0.0324
     35  C          0.1150    3.6680    7.1340 C.2     2  UNL2        0.0245
     36  C         -0.6410    4.0240    6.0280 C.2     2  UNL2        0.1085
     37  C          9.1420    3.6680   12.5180 C.3     2  UNL2        0.0897
@<TRIPOS>BOND
     1     1    10    2
     2     2    17    1
     3     2    10   am
     4     3    27    1
     5     3    19    1
     6     3    20    1
     7     4    24    1
     8     4    16    1
     9     5    16    2
    10     5    13    1
    11     6    16    2
    12     6    36    1
    13     7    23   ar
    14     7    32   ar
    15     8    33    1
    16     8    29    1
    17     8    37    1
    18     9    24   ar
    19     9    17   ar
    20    10    12    1
    21    11    12   ar
    22    11    22   ar
    23    12    15   ar
    24    13    35    1
    25    13    14    1
    26    14    23   ar
    27    14    25   ar
    28    15    30   ar
    29    17    21   ar
    30    18    30   ar
    31    18    22   ar
    32    18    27    1
    33    19    33    1
    34    20    29    1
    35    21    26   ar
    36    24    28   ar
    37    25    31   ar
    38    26    28   ar
    39    28    34    1
    40    31    32   ar
    41    35    36    2
