DNA (5'-D(*CP*GP*TP*AP*CP*G)-3')
     RDKit          3D

189203  0  0  0  0  0  0  0  0999 V2000
   -8.0355    5.4098    2.7954 O   0  0  0  0  0  0  0  0  0  0  0  0
   -7.7449    4.0490    2.5647 C   0  0  0  0  0  0  0  0  0  0  0  0
   -6.3316    3.7085    2.9167 C   0  0  0  0  0  0  0  0  0  0  0  0
   -5.9996    2.3780    2.7114 O   0  0  0  0  0  0  0  0  0  0  0  0
   -5.3159    4.5436    2.2182 C   0  0  0  0  0  0  0  0  0  0  0  0
   -5.5147    4.5135    0.8297 O   0  0  0  0  0  0  0  0  0  0  0  0
   -4.0623    3.6696    2.4436 C   0  0  0  0  0  0  0  0  0  0  0  0
   -4.6987    2.3150    2.2285 C   0  0  0  0  0  0  0  0  0  0  0  0
   -4.7645    2.0487    0.8066 N   0  0  0  0  0  0  0  0  0  0  0  0
   -3.6786    1.9755    0.0193 C   0  0  0  0  0  0  0  0  0  0  0  0
   -2.5314    2.1370    0.4959 O   0  0  0  0  0  0  0  0  0  0  0  0
   -3.7468    1.7276   -1.3093 N   0  0  0  0  0  0  0  0  0  0  0  0
   -4.9199    1.5343   -1.9451 C   0  0  0  0  0  0  0  0  0  0  0  0
   -5.0141    1.2706   -3.3395 N   0  0  0  0  0  0  0  0  0  0  0  0
   -6.0585    1.6023   -1.1658 C   0  0  0  0  0  0  0  0  0  0  0  0
   -5.9578    1.8565    0.1861 C   0  0  0  0  0  0  0  0  0  0  0  0
   -5.3154    6.0781    0.1786 P   0  0  0  0  0  0  0  0  0  0  0  0
   -6.0124    7.1710    1.2625 O   0  0  0  0  0  0  0  0  0  0  0  0
   -5.9418    6.1780   -1.1759 O   0  0  0  0  0  0  0  0  0  0  0  0
   -3.6553    6.3960    0.1661 O   0  0  0  0  0  0  0  0  0  0  0  0
   -3.0160    5.7912   -0.8968 C   0  0  0  0  0  0  0  0  0  0  0  0
   -1.5596    6.0977   -0.7910 C   0  0  0  0  0  0  0  0  0  0  0  0
   -0.9349    5.6601    0.3469 O   0  0  0  0  0  0  0  0  0  0  0  0
   -0.7217    5.5603   -1.9202 C   0  0  0  0  0  0  0  0  0  0  0  0
   -0.7145    4.1766   -1.9829 O   0  0  0  0  0  0  0  0  0  0  0  0
    0.6458    5.9790   -1.3516 C   0  0  0  0  0  0  0  0  0  0  0  0
    0.4269    5.5676    0.0849 C   0  0  0  0  0  0  0  0  0  0  0  0
    1.2076    6.3516    1.0225 N   0  0  0  0  0  0  0  0  0  0  0  0
    0.6869    7.1046    1.9951 C   0  0  0  0  0  0  0  0  0  0  0  0
    1.7068    7.6785    2.6499 N   0  0  0  0  0  0  0  0  0  0  0  0
    2.8563    7.2873    2.0921 C   0  0  0  0  0  0  0  0  0  0  0  0
    4.1590    7.5830    2.3810 C   0  0  0  0  0  0  0  0  0  0  0  0
    4.4294    8.3660    3.3427 O   0  0  0  0  0  0  0  0  0  0  0  0
    5.1583    7.0561    1.6610 N   0  0  0  0  0  0  0  0  0  0  0  0
    4.8541    6.2280    0.6451 C   0  0  0  0  0  0  0  0  0  0  0  0
    5.9344    5.6839   -0.1029 N   0  0  0  0  0  0  0  0  0  0  0  0
    3.5679    5.9296    0.3519 N   0  0  0  0  0  0  0  0  0  0  0  0
    2.5481    6.4391    1.0511 C   0  0  0  0  0  0  0  0  0  0  0  0
   -0.9749    3.6130   -3.5471 P   0  0  0  0  0  0  0  0  0  0  0  0
   -0.1807    4.5465   -4.7126 O   0  0  0  0  0  0  0  0  0  0  0  0
   -2.4705    3.6130   -3.7686 O   0  0  0  0  0  0  0  0  0  0  0  0
   -0.4538    2.0256   -3.7816 O   0  0  0  0  0  0  0  0  0  0  0  0
    0.7427    1.8621   -3.0949 C   0  0  0  0  0  0  0  0  0  0  0  0
    1.3050    0.4635   -3.2828 C   0  0  0  0  0  0  0  0  0  0  0  0
    1.5696    0.1461   -4.5909 O   0  0  0  0  0  0  0  0  0  0  0  0
    0.2685   -0.5218   -2.7849 C   0  0  0  0  0  0  0  0  0  0  0  0
    0.7574   -1.2668   -1.7102 O   0  0  0  0  0  0  0  0  0  0  0  0
    0.1256   -1.4643   -3.9548 C   0  0  0  0  0  0  0  0  0  0  0  0
    1.4061   -1.2095   -4.7159 C   0  0  0  0  0  0  0  0  0  0  0  0
    1.2332   -1.6136   -6.0995 N   0  0  0  0  0  0  0  0  0  0  0  0
    1.1194   -0.6868   -7.0766 C   0  0  0  0  0  0  0  0  0  0  0  0
    1.1625    0.5570   -6.8134 O   0  0  0  0  0  0  0  0  0  0  0  0
    0.9560   -1.0110   -8.3746 N   0  0  0  0  0  0  0  0  0  0  0  0
    0.8974   -2.2969   -8.7643 C   0  0  0  0  0  0  0  0  0  0  0  0
    0.7455   -2.6528   -9.9641 O   0  0  0  0  0  0  0  0  0  0  0  0
    1.0126   -3.2728   -7.7728 C   0  0  0  0  0  0  0  0  0  0  0  0
    0.9598   -4.7219   -8.0946 C   0  0  0  0  0  0  0  0  0  0  0  0
    1.1793   -2.9089   -6.4515 C   0  0  0  0  0  0  0  0  0  0  0  0
   -0.2528   -1.0446   -0.4028 P   0  0  0  0  0  0  0  0  0  0  0  0
    0.4940    0.0073    0.6832 O   0  0  0  0  0  0  0  0  0  0  0  0
   -1.5712   -0.4894   -0.8965 O   0  0  0  0  0  0  0  0  0  0  0  0
   -0.6218   -2.4714    0.4283 O   0  0  0  0  0  0  0  0  0  0  0  0
   -1.1182   -2.1249    1.7049 C   0  0  0  0  0  0  0  0  0  0  0  0
   -1.7931   -3.3365    2.3420 C   0  0  0  0  0  0  0  0  0  0  0  0
   -2.8299   -3.7694    1.5657 O   0  0  0  0  0  0  0  0  0  0  0  0
   -0.8181   -4.4633    2.5407 C   0  0  0  0  0  0  0  0  0  0  0  0
    0.5021   -4.1030    2.5676 O   0  0  0  0  0  0  0  0  0  0  0  0
   -1.1890   -5.3292    1.3227 C   0  0  0  0  0  0  0  0  0  0  0  0
   -2.6859   -5.1173    1.3270 C   0  0  0  0  0  0  0  0  0  0  0  0
   -3.3137   -5.5168    0.0775 N   0  0  0  0  0  0  0  0  0  0  0  0
   -3.0491   -6.5047   -0.7614 C   0  0  0  0  0  0  0  0  0  0  0  0
   -3.9207   -6.4719   -1.8122 N   0  0  0  0  0  0  0  0  0  0  0  0
   -4.7459   -5.4269   -1.6059 C   0  0  0  0  0  0  0  0  0  0  0  0
   -5.8174   -4.8665   -2.2825 C   0  0  0  0  0  0  0  0  0  0  0  0
   -6.2258   -5.4668   -3.5062 N   0  0  0  0  0  0  0  0  0  0  0  0
   -6.4638   -3.7760   -1.7990 N   0  0  0  0  0  0  0  0  0  0  0  0
   -6.0836   -3.1956   -0.6360 C   0  0  0  0  0  0  0  0  0  0  0  0
   -5.0459   -3.7284    0.0308 N   0  0  0  0  0  0  0  0  0  0  0  0
   -4.3749   -4.8177   -0.4206 C   0  0  0  0  0  0  0  0  0  0  0  0
    1.2450   -4.7659    3.9411 P   0  0  0  0  0  0  0  0  0  0  0  0
    0.1556   -5.8173    4.7402 O   0  0  0  0  0  0  0  0  0  0  0  0
    2.4027   -5.6088    3.4720 O   0  0  0  0  0  0  0  0  0  0  0  0
    1.8062   -3.6156    5.0139 O   0  0  0  0  0  0  0  0  0  0  0  0
    1.4195   -2.3250    4.7413 C   0  0  0  0  0  0  0  0  0  0  0  0
    1.9289   -1.4331    5.8338 C   0  0  0  0  0  0  0  0  0  0  0  0
    1.6182   -0.1023    5.6884 O   0  0  0  0  0  0  0  0  0  0  0  0
    3.3869   -1.5526    6.1099 C   0  0  0  0  0  0  0  0  0  0  0  0
    4.1880   -1.5037    4.9713 O   0  0  0  0  0  0  0  0  0  0  0  0
    3.6271   -0.2521    6.8916 C   0  0  0  0  0  0  0  0  0  0  0  0
    2.6453    0.6608    6.1877 C   0  0  0  0  0  0  0  0  0  0  0  0
    3.3469    1.3020    5.0964 N   0  0  0  0  0  0  0  0  0  0  0  0
    4.3659    2.1470    5.3628 C   0  0  0  0  0  0  0  0  0  0  0  0
    4.7392    2.4061    6.5483 O   0  0  0  0  0  0  0  0  0  0  0  0
    5.0243    2.7480    4.3412 N   0  0  0  0  0  0  0  0  0  0  0  0
    4.7107    2.5436    3.0609 C   0  0  0  0  0  0  0  0  0  0  0  0
    5.3810    3.1564    1.9655 N   0  0  0  0  0  0  0  0  0  0  0  0
    3.6606    1.6747    2.7480 C   0  0  0  0  0  0  0  0  0  0  0  0
    3.0119    1.0797    3.8130 C   0  0  0  0  0  0  0  0  0  0  0  0
    5.2820   -2.8045    4.9868 P   0  0  0  0  0  0  0  0  0  0  0  0
    6.6941   -2.2737    5.0856 O   0  0  0  0  0  0  0  0  0  0  0  0
    5.0202   -3.7474    6.3856 O   0  0  0  0  0  0  0  0  0  0  0  0
    5.0932   -3.7927    3.6507 O   0  0  0  0  0  0  0  0  0  0  0  0
    5.5825   -3.1528    2.4988 C   0  0  0  0  0  0  0  0  0  0  0  0
    5.3827   -4.0685    1.2831 C   0  0  0  0  0  0  0  0  0  0  0  0
    4.0301   -4.2859    1.1987 O   0  0  0  0  0  0  0  0  0  0  0  0
    5.8357   -3.3884    0.0398 C   0  0  0  0  0  0  0  0  0  0  0  0
    6.2124   -2.0606    0.2532 O   0  0  0  0  0  0  0  0  0  0  0  0
    4.6727   -3.4770   -0.9023 C   0  0  0  0  0  0  0  0  0  0  0  0
    3.6558   -4.2452   -0.1323 C   0  0  0  0  0  0  0  0  0  0  0  0
    3.3833   -5.5683   -0.6646 N   0  0  0  0  0  0  0  0  0  0  0  0
    4.1357   -6.6777   -0.4395 C   0  0  0  0  0  0  0  0  0  0  0  0
    3.5889   -7.7236   -1.0843 N   0  0  0  0  0  0  0  0  0  0  0  0
    2.4804   -7.3113   -1.7331 C   0  0  0  0  0  0  0  0  0  0  0  0
    1.5760   -7.9837   -2.5245 C   0  0  0  0  0  0  0  0  0  0  0  0
    1.6744   -9.2140   -2.7765 O   0  0  0  0  0  0  0  0  0  0  0  0
    0.5573   -7.2624   -3.0318 N   0  0  0  0  0  0  0  0  0  0  0  0
    0.4530   -5.9493   -2.7622 C   0  0  0  0  0  0  0  0  0  0  0  0
   -0.6665   -5.2726   -3.3511 N   0  0  0  0  0  0  0  0  0  0  0  0
    1.3244   -5.2922   -1.9973 N   0  0  0  0  0  0  0  0  0  0  0  0
    2.3678   -5.9522   -1.4569 C   0  0  0  0  0  0  0  0  0  0  0  0
   -9.0107    5.5357    2.9610 H   0  0  0  0  0  0  0  0  0  0  0  0
   -8.4734    3.4936    3.1644 H   0  0  0  0  0  0  0  0  0  0  0  0
   -7.9768    3.8688    1.4918 H   0  0  0  0  0  0  0  0  0  0  0  0
   -6.2158    3.9060    4.0157 H   0  0  0  0  0  0  0  0  0  0  0  0
   -5.1600    5.5476    2.6113 H   0  0  0  0  0  0  0  0  0  0  0  0
   -3.7820    3.8229    3.5072 H   0  0  0  0  0  0  0  0  0  0  0  0
   -3.3042    3.9432    1.7150 H   0  0  0  0  0  0  0  0  0  0  0  0
   -4.1123    1.5152    2.7605 H   0  0  0  0  0  0  0  0  0  0  0  0
   -5.8779    0.7428   -3.6647 H   0  0  0  0  0  0  0  0  0  0  0  0
   -4.2923    1.5636   -4.0364 H   0  0  0  0  0  0  0  0  0  0  0  0
   -7.0380    1.4571   -1.6072 H   0  0  0  0  0  0  0  0  0  0  0  0
   -6.8563    1.8994    0.7513 H   0  0  0  0  0  0  0  0  0  0  0  0
   -3.2517    4.7418   -1.0505 H   0  0  0  0  0  0  0  0  0  0  0  0
   -3.3746    6.3177   -1.8275 H   0  0  0  0  0  0  0  0  0  0  0  0
   -1.4092    7.2196   -0.8070 H   0  0  0  0  0  0  0  0  0  0  0  0
   -0.9073    6.0645   -2.8881 H   0  0  0  0  0  0  0  0  0  0  0  0
    1.4613    5.4771   -1.8644 H   0  0  0  0  0  0  0  0  0  0  0  0
    0.6937    7.0863   -1.3476 H   0  0  0  0  0  0  0  0  0  0  0  0
    0.6874    4.4947    0.2104 H   0  0  0  0  0  0  0  0  0  0  0  0
   -0.3489    7.2805    2.2788 H   0  0  0  0  0  0  0  0  0  0  0  0
    6.0330    5.8059   -1.1346 H   0  0  0  0  0  0  0  0  0  0  0  0
    6.6495    5.1370    0.4549 H   0  0  0  0  0  0  0  0  0  0  0  0
    3.3549    5.2954   -0.4246 H   0  0  0  0  0  0  0  0  0  0  0  0
    0.6428    2.0120   -2.0003 H   0  0  0  0  0  0  0  0  0  0  0  0
    1.5324    2.5682   -3.4313 H   0  0  0  0  0  0  0  0  0  0  0  0
    2.2333    0.3336   -2.6955 H   0  0  0  0  0  0  0  0  0  0  0  0
   -0.6792   -0.0034   -2.5237 H   0  0  0  0  0  0  0  0  0  0  0  0
   -0.7446   -1.1030   -4.5475 H   0  0  0  0  0  0  0  0  0  0  0  0
    0.0157   -2.5233   -3.6602 H   0  0  0  0  0  0  0  0  0  0  0  0
    2.2265   -1.8311   -4.3068 H   0  0  0  0  0  0  0  0  0  0  0  0
    0.8700   -0.2619   -9.1239 H   0  0  0  0  0  0  0  0  0  0  0  0
    0.8781   -4.9204   -9.1688 H   0  0  0  0  0  0  0  0  0  0  0  0
    0.0943   -5.1218   -7.5164 H   0  0  0  0  0  0  0  0  0  0  0  0
    1.8763   -5.1812   -7.6485 H   0  0  0  0  0  0  0  0  0  0  0  0
    1.2680   -3.6993   -5.6944 H   0  0  0  0  0  0  0  0  0  0  0  0
   -1.8583   -1.3165    1.6761 H   0  0  0  0  0  0  0  0  0  0  0  0
   -0.2921   -1.8336    2.3798 H   0  0  0  0  0  0  0  0  0  0  0  0
   -2.2102   -3.0464    3.3242 H   0  0  0  0  0  0  0  0  0  0  0  0
   -1.1319   -5.1035    3.4182 H   0  0  0  0  0  0  0  0  0  0  0  0
   -0.9263   -6.3903    1.5067 H   0  0  0  0  0  0  0  0  0  0  0  0
   -0.7242   -4.9127    0.4161 H   0  0  0  0  0  0  0  0  0  0  0  0
   -3.1221   -5.6844    2.1768 H   0  0  0  0  0  0  0  0  0  0  0  0
   -2.2565   -7.2223   -0.6201 H   0  0  0  0  0  0  0  0  0  0  0  0
   -7.1963   -5.8421   -3.6628 H   0  0  0  0  0  0  0  0  0  0  0  0
   -5.4807   -5.5131   -4.2618 H   0  0  0  0  0  0  0  0  0  0  0  0
   -6.5785   -2.3249   -0.2226 H   0  0  0  0  0  0  0  0  0  0  0  0
    1.8996   -2.0125    3.7976 H   0  0  0  0  0  0  0  0  0  0  0  0
    0.3219   -2.2160    4.6552 H   0  0  0  0  0  0  0  0  0  0  0  0
    1.3944   -1.7717    6.7691 H   0  0  0  0  0  0  0  0  0  0  0  0
    3.6603   -2.4290    6.7233 H   0  0  0  0  0  0  0  0  0  0  0  0
    3.3222   -0.4880    7.9332 H   0  0  0  0  0  0  0  0  0  0  0  0
    4.6763    0.0866    6.8182 H   0  0  0  0  0  0  0  0  0  0  0  0
    2.3050    1.3993    6.9468 H   0  0  0  0  0  0  0  0  0  0  0  0
    6.3953    3.4081    2.0959 H   0  0  0  0  0  0  0  0  0  0  0  0
    4.8689    3.3431    1.0659 H   0  0  0  0  0  0  0  0  0  0  0  0
    3.3855    1.4914    1.7108 H   0  0  0  0  0  0  0  0  0  0  0  0
    2.1919    0.3995    3.6112 H   0  0  0  0  0  0  0  0  0  0  0  0
    6.6270   -2.8891    2.6706 H   0  0  0  0  0  0  0  0  0  0  0  0
    5.0055   -2.2292    2.4023 H   0  0  0  0  0  0  0  0  0  0  0  0
    5.9548   -4.9894    1.4701 H   0  0  0  0  0  0  0  0  0  0  0  0
    6.7465   -3.8916   -0.3926 H   0  0  0  0  0  0  0  0  0  0  0  0
    6.2482   -1.5507   -0.5866 H   0  0  0  0  0  0  0  0  0  0  0  0
    4.3239   -2.4426   -1.1246 H   0  0  0  0  0  0  0  0  0  0  0  0
    4.9276   -4.0480   -1.8142 H   0  0  0  0  0  0  0  0  0  0  0  0
    2.6949   -3.6514   -0.1458 H   0  0  0  0  0  0  0  0  0  0  0  0
    5.0370   -6.7714    0.1500 H   0  0  0  0  0  0  0  0  0  0  0  0
   -0.9173   -5.4952   -4.3514 H   0  0  0  0  0  0  0  0  0  0  0  0
   -1.2227   -4.5665   -2.7842 H   0  0  0  0  0  0  0  0  0  0  0  0
    1.2160   -4.2544   -1.8015 H   0  0  0  0  0  0  0  0  0  0  0  0
  1  2  1  0
  1121  1  0
  2  3  1  0
  2122  1  0
  2123  1  0
  3  4  1  0
  3  5  1  0
  3124  1  0
  4  8  1  0
  5  7  1  0
  5  6  1  0
  5125  1  0
  6 17  1  0
  7  8  1  0
  7126  1  0
  7127  1  0
  8  9  1  0
  8128  1  0
  9 16  1  0
  9 10  1  0
 10 12  1  0
 10 11  2  0
 12 13  2  0
 13 15  1  0
 13 14  1  0
 14129  1  0
 14130  1  0
 15 16  2  0
 15131  1  0
 16132  1  0
 17 20  1  0
 17 19  2  0
 17 18  1  0
 20 21  1  0
 21 22  1  0
 21133  1  0
 21134  1  0
 22 24  1  0
 22 23  1  0
 22135  1  0
 23 27  1  0
 24 25  1  0
 24 26  1  0
 24136  1  0
 25 39  1  0
 26 27  1  0
 26137  1  0
 26138  1  0
 27 28  1  0
 27139  1  0
 28 38  1  0
 28 29  1  0
 29 30  2  0
 29140  1  0
 30 31  1  0
 31 32  1  0
 31 38  2  0
 32 33  2  0
 32 34  1  0
 34 35  2  0
 35 36  1  0
 35 37  1  0
 36141  1  0
 36142  1  0
 37 38  1  0
 37143  1  0
 39 41  2  0
 39 42  1  0
 39 40  1  0
 42 43  1  0
 43 44  1  0
 43144  1  0
 43145  1  0
 44 46  1  0
 44 45  1  0
 44146  1  0
 45 49  1  0
 46 48  1  0
 46 47  1  0
 46147  1  0
 47 59  1  0
 48 49  1  0
 48148  1  0
 48149  1  0
 49 50  1  0
 49150  1  0
 50 51  1  0
 50 58  1  0
 51 53  1  0
 51 52  2  0
 53 54  1  0
 53151  1  0
 54 55  2  0
 54 56  1  0
 56 57  1  0
 56 58  2  0
 57152  1  0
 57153  1  0
 57154  1  0
 58155  1  0
 59 61  2  0
 59 62  1  0
 59 60  1  0
 62 63  1  0
 63 64  1  0
 63156  1  0
 63157  1  0
 64 66  1  0
 64 65  1  0
 64158  1  0
 65 69  1  0
 66 68  1  0
 66 67  1  0
 66159  1  0
 67 80  1  0
 68 69  1  0
 68160  1  0
 68161  1  0
 69 70  1  0
 69162  1  0
 70 79  1  0
 70 71  1  0
 71 72  2  0
 71163  1  0
 72 73  1  0
 73 79  2  0
 73 74  1  0
 74 76  2  0
 74 75  1  0
 75164  1  0
 75165  1  0
 76 77  1  0
 77 78  2  0
 77166  1  0
 78 79  1  0
 80 83  1  0
 80 82  2  0
 80 81  1  0
 83 84  1  0
 84 85  1  0
 84167  1  0
 84168  1  0
 85 87  1  0
 85 86  1  0
 85169  1  0
 86 90  1  0
 87 88  1  0
 87 89  1  0
 87170  1  0
 88 99  1  0
 89 90  1  0
 89171  1  0
 89172  1  0
 90 91  1  0
 90173  1  0
 91 98  1  0
 91 92  1  0
 92 93  2  0
 92 94  1  0
 94 95  2  0
 95 97  1  0
 95 96  1  0
 96174  1  0
 96175  1  0
 97 98  2  0
 97176  1  0
 98177  1  0
 99100  2  0
 99101  1  0
 99102  1  0
102103  1  0
103104  1  0
103178  1  0
103179  1  0
104105  1  0
104106  1  0
104180  1  0
105109  1  0
106108  1  0
106107  1  0
106181  1  0
107182  1  0
108109  1  0
108183  1  0
108184  1  0
109110  1  0
109185  1  0
110111  1  0
110120  1  0
111112  2  0
111186  1  0
112113  1  0
113114  1  0
113120  2  0
114115  2  0
114116  1  0
116117  2  0
117118  1  0
117119  1  0
118187  1  0
118188  1  0
119120  1  0
119189  1  0
M  CHG  5  18  -1  40  -1  60  -1  81  -1 101  -1
M  END
$$$$
DNA (5'-D(*CP*GP*TP*AP*CP*G)-3')
     RDKit          3D

189203  0  0  0  0  0  0  0  0999 V2000
   -7.2321   -2.7011    0.2602 O   0  0  0  0  0  0  0  0  0  0  0  0
   -6.1648   -3.2562   -0.4316 C   0  0  0  0  0  0  0  0  0  0  0  0
   -5.1716   -3.8684    0.5490 C   0  0  0  0  0  0  0  0  0  0  0  0
   -5.8520   -4.8405    1.2424 O   0  0  0  0  0  0  0  0  0  0  0  0
   -4.0640   -4.5863   -0.1833 C   0  0  0  0  0  0  0  0  0  0  0  0
   -4.4332   -4.8642   -1.4724 O   0  0  0  0  0  0  0  0  0  0  0  0
   -3.9393   -5.8929    0.5519 C   0  0  0  0  0  0  0  0  0  0  0  0
   -4.9824   -5.8326    1.6141 C   0  0  0  0  0  0  0  0  0  0  0  0
   -4.4346   -5.5863    2.9392 N   0  0  0  0  0  0  0  0  0  0  0  0
   -4.9769   -4.6980    3.7817 C   0  0  0  0  0  0  0  0  0  0  0  0
   -6.0052   -4.0320    3.4430 O   0  0  0  0  0  0  0  0  0  0  0  0
   -4.4897   -4.4515    5.0110 N   0  0  0  0  0  0  0  0  0  0  0  0
   -3.4082   -5.1188    5.4297 C   0  0  0  0  0  0  0  0  0  0  0  0
   -2.8370   -4.9006    6.7341 N   0  0  0  0  0  0  0  0  0  0  0  0
   -2.7922   -6.0562    4.6085 C   0  0  0  0  0  0  0  0  0  0  0  0
   -3.3494   -6.2640    3.3452 C   0  0  0  0  0  0  0  0  0  0  0  0
   -3.3194   -4.4084   -2.6468 P   0  0  0  0  0  0  0  0  0  0  0  0
   -3.0647   -5.6936   -3.7531 O   0  0  0  0  0  0  0  0  0  0  0  0
   -3.9832   -3.3033   -3.4745 O   0  0  0  0  0  0  0  0  0  0  0  0
   -1.8436   -3.9074   -2.0551 O   0  0  0  0  0  0  0  0  0  0  0  0
   -0.9890   -4.9114   -1.6913 C   0  0  0  0  0  0  0  0  0  0  0  0
    0.4666   -4.5084   -1.6297 C   0  0  0  0  0  0  0  0  0  0  0  0
    0.9000   -4.0697   -2.8783 O   0  0  0  0  0  0  0  0  0  0  0  0
    0.7851   -3.4244   -0.6679 C   0  0  0  0  0  0  0  0  0  0  0  0
   -0.0576   -3.2670    0.3995 O   0  0  0  0  0  0  0  0  0  0  0  0
    0.6151   -2.1836   -1.5417 C   0  0  0  0  0  0  0  0  0  0  0  0
    0.8991   -2.7097   -2.8999 C   0  0  0  0  0  0  0  0  0  0  0  0
   -0.0796   -2.2557   -3.8902 N   0  0  0  0  0  0  0  0  0  0  0  0
   -0.8954   -1.1927   -3.7285 C   0  0  0  0  0  0  0  0  0  0  0  0
   -1.6794   -1.0469   -4.8379 N   0  0  0  0  0  0  0  0  0  0  0  0
   -1.3335   -2.0377   -5.6873 C   0  0  0  0  0  0  0  0  0  0  0  0
   -1.8616   -2.2878   -6.9407 C   0  0  0  0  0  0  0  0  0  0  0  0
   -2.7696   -1.5790   -7.4427 O   0  0  0  0  0  0  0  0  0  0  0  0
   -1.3255   -3.3577   -7.5915 N   0  0  0  0  0  0  0  0  0  0  0  0
   -0.3598   -4.0780   -7.0085 C   0  0  0  0  0  0  0  0  0  0  0  0
    0.1444   -5.1886   -7.7770 N   0  0  0  0  0  0  0  0  0  0  0  0
    0.1438   -3.8242   -5.7884 N   0  0  0  0  0  0  0  0  0  0  0  0
   -0.3518   -2.7750   -5.0994 C   0  0  0  0  0  0  0  0  0  0  0  0
    0.6667   -3.1608    1.8971 P   0  0  0  0  0  0  0  0  0  0  0  0
   -0.5670   -2.7302    3.0033 O   0  0  0  0  0  0  0  0  0  0  0  0
    1.1344   -4.5465    2.3556 O   0  0  0  0  0  0  0  0  0  0  0  0
    1.8846   -2.0328    2.0250 O   0  0  0  0  0  0  0  0  0  0  0  0
    1.7288   -1.1145    3.0623 C   0  0  0  0  0  0  0  0  0  0  0  0
    2.8962   -0.1646    3.1540 C   0  0  0  0  0  0  0  0  0  0  0  0
    2.7057    0.7164    4.1858 O   0  0  0  0  0  0  0  0  0  0  0  0
    4.1949   -0.9462    3.4412 C   0  0  0  0  0  0  0  0  0  0  0  0
    5.2438   -0.4112    2.7369 O   0  0  0  0  0  0  0  0  0  0  0  0
    4.3760   -0.5499    4.8942 C   0  0  0  0  0  0  0  0  0  0  0  0
    3.9953    0.9172    4.7289 C   0  0  0  0  0  0  0  0  0  0  0  0
    4.0309    1.7117    5.8887 N   0  0  0  0  0  0  0  0  0  0  0  0
    4.1696    1.3062    7.1592 C   0  0  0  0  0  0  0  0  0  0  0  0
    4.2886    0.0807    7.4024 O   0  0  0  0  0  0  0  0  0  0  0  0
    4.1906    2.1477    8.2149 N   0  0  0  0  0  0  0  0  0  0  0  0
    4.0715    3.4848    8.0687 C   0  0  0  0  0  0  0  0  0  0  0  0
    4.0887    4.2814    9.0574 O   0  0  0  0  0  0  0  0  0  0  0  0
    3.9265    3.9489    6.7694 C   0  0  0  0  0  0  0  0  0  0  0  0
    3.7888    5.4043    6.4931 C   0  0  0  0  0  0  0  0  0  0  0  0
    3.9089    3.0654    5.7191 C   0  0  0  0  0  0  0  0  0  0  0  0
    5.6903   -1.3076    1.3894 P   0  0  0  0  0  0  0  0  0  0  0  0
    5.1231   -2.8699    1.3642 O   0  0  0  0  0  0  0  0  0  0  0  0
    7.1962   -1.3313    1.3199 O   0  0  0  0  0  0  0  0  0  0  0  0
    5.1542   -0.5202   -0.0359 O   0  0  0  0  0  0  0  0  0  0  0  0
    5.9386   -0.9910   -1.0814 C   0  0  0  0  0  0  0  0  0  0  0  0
    5.8825    0.0361   -2.1979 C   0  0  0  0  0  0  0  0  0  0  0  0
    6.6461   -0.4326   -3.2465 O   0  0  0  0  0  0  0  0  0  0  0  0
    4.4935    0.2434   -2.6764 C   0  0  0  0  0  0  0  0  0  0  0  0
    3.4905    0.1787   -1.7466 O   0  0  0  0  0  0  0  0  0  0  0  0
    4.4185   -0.8720   -3.7367 C   0  0  0  0  0  0  0  0  0  0  0  0
    5.8098   -0.6913   -4.3256 C   0  0  0  0  0  0  0  0  0  0  0  0
    5.8001    0.4667   -5.2033 N   0  0  0  0  0  0  0  0  0  0  0  0
    5.0887    0.6856   -6.3242 C   0  0  0  0  0  0  0  0  0  0  0  0
    5.3713    1.9084   -6.8353 N   0  0  0  0  0  0  0  0  0  0  0  0
    6.2660    2.4826   -6.0460 C   0  0  0  0  0  0  0  0  0  0  0  0
    6.9279    3.6890   -6.0284 C   0  0  0  0  0  0  0  0  0  0  0  0
    6.7180    4.6770   -7.0277 N   0  0  0  0  0  0  0  0  0  0  0  0
    7.8228    4.0088   -5.0500 N   0  0  0  0  0  0  0  0  0  0  0  0
    8.0841    3.1281   -4.0576 C   0  0  0  0  0  0  0  0  0  0  0  0
    7.4251    1.9645   -4.1013 N   0  0  0  0  0  0  0  0  0  0  0  0
    6.5382    1.6002   -5.0346 C   0  0  0  0  0  0  0  0  0  0  0  0
    2.4283    1.4904   -1.8614 P   0  0  0  0  0  0  0  0  0  0  0  0
    3.3599    2.8861   -2.0052 O   0  0  0  0  0  0  0  0  0  0  0  0
    1.5138    1.2747   -3.0596 O   0  0  0  0  0  0  0  0  0  0  0  0
    1.4456    1.5213   -0.4794 O   0  0  0  0  0  0  0  0  0  0  0  0
    0.6839    2.6639   -0.4314 C   0  0  0  0  0  0  0  0  0  0  0  0
   -0.1806    2.8408    0.7770 C   0  0  0  0  0  0  0  0  0  0  0  0
    0.5415    2.8541    1.9589 O   0  0  0  0  0  0  0  0  0  0  0  0
   -1.3268    1.9335    0.9281 C   0  0  0  0  0  0  0  0  0  0  0  0
   -1.2231    0.6632    0.4241 O   0  0  0  0  0  0  0  0  0  0  0  0
   -1.5599    1.9184    2.4359 C   0  0  0  0  0  0  0  0  0  0  0  0
   -0.3000    2.4773    2.9859 C   0  0  0  0  0  0  0  0  0  0  0  0
   -0.4660    3.4658    4.0284 N   0  0  0  0  0  0  0  0  0  0  0  0
   -1.2915    4.5213    3.9294 C   0  0  0  0  0  0  0  0  0  0  0  0
   -1.9786    4.6944    2.8824 O   0  0  0  0  0  0  0  0  0  0  0  0
   -1.4505    5.4439    4.8950 N   0  0  0  0  0  0  0  0  0  0  0  0
   -0.7709    5.3600    6.0508 C   0  0  0  0  0  0  0  0  0  0  0  0
   -0.9763    6.3690    7.0373 N   0  0  0  0  0  0  0  0  0  0  0  0
    0.0834    4.3084    6.2119 C   0  0  0  0  0  0  0  0  0  0  0  0
    0.2262    3.3768    5.2038 C   0  0  0  0  0  0  0  0  0  0  0  0
   -2.7345    0.2957   -0.2763 P   0  0  0  0  0  0  0  0  0  0  0  0
   -2.8536   -1.1857   -0.3800 O   0  0  0  0  0  0  0  0  0  0  0  0
   -3.9851    0.8087    0.7736 O   0  0  0  0  0  0  0  0  0  0  0  0
   -2.9409    1.1219   -1.7184 O   0  0  0  0  0  0  0  0  0  0  0  0
   -4.3098    1.3141   -1.9340 C   0  0  0  0  0  0  0  0  0  0  0  0
   -4.5381    2.2926   -3.0776 C   0  0  0  0  0  0  0  0  0  0  0  0
   -3.9607    3.5036   -2.8074 O   0  0  0  0  0  0  0  0  0  0  0  0
   -6.0170    2.5625   -3.2053 C   0  0  0  0  0  0  0  0  0  0  0  0
   -6.6503    2.3323   -1.9826 O   0  0  0  0  0  0  0  0  0  0  0  0
   -6.0828    4.0092   -3.5803 C   0  0  0  0  0  0  0  0  0  0  0  0
   -4.6724    4.4795   -3.4927 C   0  0  0  0  0  0  0  0  0  0  0  0
   -4.5541    5.7722   -2.8529 N   0  0  0  0  0  0  0  0  0  0  0  0
   -4.3785    6.9882   -3.3751 C   0  0  0  0  0  0  0  0  0  0  0  0
   -4.3177    7.9058   -2.3777 N   0  0  0  0  0  0  0  0  0  0  0  0
   -4.4557    7.2700   -1.2027 C   0  0  0  0  0  0  0  0  0  0  0  0
   -4.4793    7.6317    0.1251 C   0  0  0  0  0  0  0  0  0  0  0  0
   -4.3444    8.8534    0.4147 O   0  0  0  0  0  0  0  0  0  0  0  0
   -4.6430    6.6978    1.0948 N   0  0  0  0  0  0  0  0  0  0  0  0
   -4.7863    5.3975    0.7946 C   0  0  0  0  0  0  0  0  0  0  0  0
   -4.9572    4.3808    1.7845 N   0  0  0  0  0  0  0  0  0  0  0  0
   -4.7636    5.0506   -0.4979 N   0  0  0  0  0  0  0  0  0  0  0  0
   -4.6038    5.9323   -1.5080 C   0  0  0  0  0  0  0  0  0  0  0  0
   -7.0159   -2.3090    1.1245 H   0  0  0  0  0  0  0  0  0  0  0  0
   -5.6957   -2.4942   -1.0815 H   0  0  0  0  0  0  0  0  0  0  0  0
   -6.5886   -4.0441   -1.0882 H   0  0  0  0  0  0  0  0  0  0  0  0
   -4.7921   -3.0475    1.1890 H   0  0  0  0  0  0  0  0  0  0  0  0
   -3.1000   -4.0764   -0.1159 H   0  0  0  0  0  0  0  0  0  0  0  0
   -4.1332   -6.7627   -0.1182 H   0  0  0  0  0  0  0  0  0  0  0  0
   -2.9090   -6.0552    0.9478 H   0  0  0  0  0  0  0  0  0  0  0  0
   -5.5665   -6.7924    1.6008 H   0  0  0  0  0  0  0  0  0  0  0  0
   -2.7644   -5.7030    7.4092 H   0  0  0  0  0  0  0  0  0  0  0  0
   -2.5014   -3.9330    6.9905 H   0  0  0  0  0  0  0  0  0  0  0  0
   -1.9154   -6.5937    4.9495 H   0  0  0  0  0  0  0  0  0  0  0  0
   -2.8399   -7.0051    2.7383 H   0  0  0  0  0  0  0  0  0  0  0  0
   -1.2300   -5.4159   -0.7342 H   0  0  0  0  0  0  0  0  0  0  0  0
   -1.0241   -5.7333   -2.4685 H   0  0  0  0  0  0  0  0  0  0  0  0
    1.0377   -5.4481   -1.4325 H   0  0  0  0  0  0  0  0  0  0  0  0
    1.8400   -3.4973   -0.3152 H   0  0  0  0  0  0  0  0  0  0  0  0
   -0.3855   -1.7460   -1.4173 H   0  0  0  0  0  0  0  0  0  0  0  0
    1.3342   -1.4008   -1.2803 H   0  0  0  0  0  0  0  0  0  0  0  0
    1.8805   -2.3651   -3.3284 H   0  0  0  0  0  0  0  0  0  0  0  0
   -0.9907   -0.5060   -2.9034 H   0  0  0  0  0  0  0  0  0  0  0  0
    0.9868   -4.9543   -8.3629 H   0  0  0  0  0  0  0  0  0  0  0  0
   -0.2958   -6.1323   -7.7471 H   0  0  0  0  0  0  0  0  0  0  0  0
    0.9062   -4.4042   -5.3443 H   0  0  0  0  0  0  0  0  0  0  0  0
    1.6213   -1.6897    3.9985 H   0  0  0  0  0  0  0  0  0  0  0  0
    0.8105   -0.5668    2.8643 H   0  0  0  0  0  0  0  0  0  0  0  0
    2.9709    0.3772    2.2063 H   0  0  0  0  0  0  0  0  0  0  0  0
    4.0167   -2.0086    3.3251 H   0  0  0  0  0  0  0  0  0  0  0  0
    5.4181   -0.7057    5.1895 H   0  0  0  0  0  0  0  0  0  0  0  0
    3.6403   -1.0799    5.5418 H   0  0  0  0  0  0  0  0  0  0  0  0
    4.5799    1.3247    3.8704 H   0  0  0  0  0  0  0  0  0  0  0  0
    4.2995    1.8116    9.2028 H   0  0  0  0  0  0  0  0  0  0  0  0
    4.4060    5.5799    5.5620 H   0  0  0  0  0  0  0  0  0  0  0  0
    4.2505    6.0357    7.2848 H   0  0  0  0  0  0  0  0  0  0  0  0
    2.7699    5.7230    6.2732 H   0  0  0  0  0  0  0  0  0  0  0  0
    3.7914    3.4885    4.7102 H   0  0  0  0  0  0  0  0  0  0  0  0
    6.9780   -1.1267   -0.7246 H   0  0  0  0  0  0  0  0  0  0  0  0
    5.6181   -1.9940   -1.4297 H   0  0  0  0  0  0  0  0  0  0  0  0
    6.2443    0.9994   -1.7940 H   0  0  0  0  0  0  0  0  0  0  0  0
    4.3814    1.2216   -3.2081 H   0  0  0  0  0  0  0  0  0  0  0  0
    3.6270   -0.7163   -4.4649 H   0  0  0  0  0  0  0  0  0  0  0  0
    4.4075   -1.8562   -3.2335 H   0  0  0  0  0  0  0  0  0  0  0  0
    6.1432   -1.6163   -4.8155 H   0  0  0  0  0  0  0  0  0  0  0  0
    4.3882   -0.0131   -6.7614 H   0  0  0  0  0  0  0  0  0  0  0  0
    5.7747    5.1231   -7.0645 H   0  0  0  0  0  0  0  0  0  0  0  0
    7.4934    4.9277   -7.6867 H   0  0  0  0  0  0  0  0  0  0  0  0
    8.7821    3.3243   -3.2556 H   0  0  0  0  0  0  0  0  0  0  0  0
   -0.0055    2.6566   -1.3220 H   0  0  0  0  0  0  0  0  0  0  0  0
    1.4012    3.5251   -0.5501 H   0  0  0  0  0  0  0  0  0  0  0  0
   -0.5988    3.8930    0.6778 H   0  0  0  0  0  0  0  0  0  0  0  0
   -2.2942    2.3523    0.5196 H   0  0  0  0  0  0  0  0  0  0  0  0
   -1.7288    0.8413    2.7086 H   0  0  0  0  0  0  0  0  0  0  0  0
   -2.4862    2.4268    2.7412 H   0  0  0  0  0  0  0  0  0  0  0  0
    0.2227    1.6139    3.4942 H   0  0  0  0  0  0  0  0  0  0  0  0
   -0.2376    7.0433    7.3117 H   0  0  0  0  0  0  0  0  0  0  0  0
   -1.9174    6.4499    7.5229 H   0  0  0  0  0  0  0  0  0  0  0  0
    0.6428    4.2264    7.1517 H   0  0  0  0  0  0  0  0  0  0  0  0
    0.9249    2.5516    5.3857 H   0  0  0  0  0  0  0  0  0  0  0  0
   -4.7685    0.3449   -2.2541 H   0  0  0  0  0  0  0  0  0  0  0  0
   -4.8303    1.6792   -1.0375 H   0  0  0  0  0  0  0  0  0  0  0  0
   -4.0974    1.8273   -3.9823 H   0  0  0  0  0  0  0  0  0  0  0  0
   -6.4414    1.8936   -3.9840 H   0  0  0  0  0  0  0  0  0  0  0  0
   -7.4246    1.7262   -2.1396 H   0  0  0  0  0  0  0  0  0  0  0  0
   -6.4557    4.1080   -4.6261 H   0  0  0  0  0  0  0  0  0  0  0  0
   -6.7485    4.5645   -2.8762 H   0  0  0  0  0  0  0  0  0  0  0  0
   -4.2321    4.5817   -4.5063 H   0  0  0  0  0  0  0  0  0  0  0  0
   -4.2955    7.2185   -4.4202 H   0  0  0  0  0  0  0  0  0  0  0  0
   -5.3095    3.4395    1.5002 H   0  0  0  0  0  0  0  0  0  0  0  0
   -4.7315    4.5721    2.8025 H   0  0  0  0  0  0  0  0  0  0  0  0
   -4.8741    4.0530   -0.7284 H   0  0  0  0  0  0  0  0  0  0  0  0
  1  2  1  0
  1121  1  0
  2  3  1  0
  2122  1  0
  2123  1  0
  3  4  1  0
  3  5  1  0
  3124  1  0
  4  8  1  0
  5  7  1  0
  5  6  1  0
  5125  1  0
  6 17  1  0
  7  8  1  0
  7126  1  0
  7127  1  0
  8  9  1  0
  8128  1  0
  9 16  1  0
  9 10  1  0
 10 12  1  0
 10 11  2  0
 12 13  2  0
 13 15  1  0
 13 14  1  0
 14129  1  0
 14130  1  0
 15 16  2  0
 15131  1  0
 16132  1  0
 17 20  1  0
 17 19  2  0
 17 18  1  0
 20 21  1  0
 21 22  1  0
 21133  1  0
 21134  1  0
 22 24  1  0
 22 23  1  0
 22135  1  0
 23 27  1  0
 24 25  1  0
 24 26  1  0
 24136  1  0
 25 39  1  0
 26 27  1  0
 26137  1  0
 26138  1  0
 27 28  1  0
 27139  1  0
 28 38  1  0
 28 29  1  0
 29 30  2  0
 29140  1  0
 30 31  1  0
 31 32  1  0
 31 38  2  0
 32 33  2  0
 32 34  1  0
 34 35  2  0
 35 36  1  0
 35 37  1  0
 36141  1  0
 36142  1  0
 37 38  1  0
 37143  1  0
 39 41  2  0
 39 42  1  0
 39 40  1  0
 42 43  1  0
 43 44  1  0
 43144  1  0
 43145  1  0
 44 46  1  0
 44 45  1  0
 44146  1  0
 45 49  1  0
 46 48  1  0
 46 47  1  0
 46147  1  0
 47 59  1  0
 48 49  1  0
 48148  1  0
 48149  1  0
 49 50  1  0
 49150  1  0
 50 51  1  0
 50 58  1  0
 51 53  1  0
 51 52  2  0
 53 54  1  0
 53151  1  0
 54 55  2  0
 54 56  1  0
 56 57  1  0
 56 58  2  0
 57152  1  0
 57153  1  0
 57154  1  0
 58155  1  0
 59 61  2  0
 59 62  1  0
 59 60  1  0
 62 63  1  0
 63 64  1  0
 63156  1  0
 63157  1  0
 64 66  1  0
 64 65  1  0
 64158  1  0
 65 69  1  0
 66 68  1  0
 66 67  1  0
 66159  1  0
 67 80  1  0
 68 69  1  0
 68160  1  0
 68161  1  0
 69 70  1  0
 69162  1  0
 70 79  1  0
 70 71  1  0
 71 72  2  0
 71163  1  0
 72 73  1  0
 73 79  2  0
 73 74  1  0
 74 76  2  0
 74 75  1  0
 75164  1  0
 75165  1  0
 76 77  1  0
 77 78  2  0
 77166  1  0
 78 79  1  0
 80 83  1  0
 80 82  2  0
 80 81  1  0
 83 84  1  0
 84 85  1  0
 84167  1  0
 84168  1  0
 85 87  1  0
 85 86  1  0
 85169  1  0
 86 90  1  0
 87 88  1  0
 87 89  1  0
 87170  1  0
 88 99  1  0
 89 90  1  0
 89171  1  0
 89172  1  0
 90 91  1  0
 90173  1  0
 91 98  1  0
 91 92  1  0
 92 93  2  0
 92 94  1  0
 94 95  2  0
 95 97  1  0
 95 96  1  0
 96174  1  0
 96175  1  0
 97 98  2  0
 97176  1  0
 98177  1  0
 99100  2  0
 99101  1  0
 99102  1  0
102103  1  0
103104  1  0
103178  1  0
103179  1  0
104105  1  0
104106  1  0
104180  1  0
105109  1  0
106108  1  0
106107  1  0
106181  1  0
107182  1  0
108109  1  0
108183  1  0
108184  1  0
109110  1  0
109185  1  0
110111  1  0
110120  1  0
111112  2  0
111186  1  0
112113  1  0
113114  1  0
113120  2  0
114115  2  0
114116  1  0
116117  2  0
117118  1  0
117119  1  0
118187  1  0
118188  1  0
119120  1  0
119189  1  0
M  CHG  5  18  -1  40  -1  60  -1  81  -1 101  -1
M  END
$$$$
DNA (5'-D(*CP*GP*TP*AP*CP*G)-3')
     RDKit          3D

189203  0  0  0  0  0  0  0  0999 V2000
   -5.8626    2.7187    5.6507 O   0  0  0  0  0  0  0  0  0  0  0  0
   -5.9185    1.6599    4.7455 C   0  0  0  0  0  0  0  0  0  0  0  0
   -4.6221    0.8611    4.7760 C   0  0  0  0  0  0  0  0  0  0  0  0
   -3.5327    1.6622    4.4415 O   0  0  0  0  0  0  0  0  0  0  0  0
   -4.6415   -0.3266    3.9153 C   0  0  0  0  0  0  0  0  0  0  0  0
   -5.5320   -0.3513    2.8615 O   0  0  0  0  0  0  0  0  0  0  0  0
   -3.1998   -0.4029    3.4314 C   0  0  0  0  0  0  0  0  0  0  0  0
   -2.8104    1.0569    3.4437 C   0  0  0  0  0  0  0  0  0  0  0  0
   -1.3738    1.2127    3.5449 N   0  0  0  0  0  0  0  0  0  0  0  0
   -0.6543    0.6785    2.5135 C   0  0  0  0  0  0  0  0  0  0  0  0
   -1.2395    0.1073    1.5366 O   0  0  0  0  0  0  0  0  0  0  0  0
    0.6667    0.7262    2.4767 N   0  0  0  0  0  0  0  0  0  0  0  0
    1.3444    1.3120    3.4715 C   0  0  0  0  0  0  0  0  0  0  0  0
    2.7630    1.3160    3.3683 N   0  0  0  0  0  0  0  0  0  0  0  0
    0.6453    1.8549    4.5152 C   0  0  0  0  0  0  0  0  0  0  0  0
   -0.7530    1.8144    4.5722 C   0  0  0  0  0  0  0  0  0  0  0  0
   -6.0354   -1.9083    2.4580 P   0  0  0  0  0  0  0  0  0  0  0  0
   -7.2697   -1.7544    1.3132 O   0  0  0  0  0  0  0  0  0  0  0  0
   -6.5932   -2.6842    3.6181 O   0  0  0  0  0  0  0  0  0  0  0  0
   -4.7766   -2.7700    1.7246 O   0  0  0  0  0  0  0  0  0  0  0  0
   -5.2115   -3.4654    0.6232 C   0  0  0  0  0  0  0  0  0  0  0  0
   -4.0318   -3.5215   -0.3460 C   0  0  0  0  0  0  0  0  0  0  0  0
   -3.7364   -2.2166   -0.6610 O   0  0  0  0  0  0  0  0  0  0  0  0
   -4.3906   -4.1891   -1.6551 C   0  0  0  0  0  0  0  0  0  0  0  0
   -5.1433   -5.3236   -1.5403 O   0  0  0  0  0  0  0  0  0  0  0  0
   -5.0681   -3.0294   -2.3453 C   0  0  0  0  0  0  0  0  0  0  0  0
   -4.2689   -1.8547   -1.8595 C   0  0  0  0  0  0  0  0  0  0  0  0
   -3.2229   -1.6052   -2.8619 N   0  0  0  0  0  0  0  0  0  0  0  0
   -1.9110   -1.7186   -2.6040 C   0  0  0  0  0  0  0  0  0  0  0  0
   -1.2131   -1.4272   -3.7326 N   0  0  0  0  0  0  0  0  0  0  0  0
   -2.1079   -1.1317   -4.6926 C   0  0  0  0  0  0  0  0  0  0  0  0
   -1.9153   -0.7699   -6.0137 C   0  0  0  0  0  0  0  0  0  0  0  0
   -0.7472   -0.6750   -6.4940 O   0  0  0  0  0  0  0  0  0  0  0  0
   -3.0228   -0.5313   -6.7375 N   0  0  0  0  0  0  0  0  0  0  0  0
   -4.2545   -0.6397   -6.2027 C   0  0  0  0  0  0  0  0  0  0  0  0
   -5.3588   -0.3640   -7.0605 N   0  0  0  0  0  0  0  0  0  0  0  0
   -4.4480   -0.9950   -4.9057 N   0  0  0  0  0  0  0  0  0  0  0  0
   -3.3692   -1.2429   -4.1456 C   0  0  0  0  0  0  0  0  0  0  0  0
   -4.2175   -6.5657   -2.2815 P   0  0  0  0  0  0  0  0  0  0  0  0
   -4.3974   -6.4057   -3.9385 O   0  0  0  0  0  0  0  0  0  0  0  0
   -4.6438   -7.9212   -1.8182 O   0  0  0  0  0  0  0  0  0  0  0  0
   -2.5761   -6.2611   -1.8890 O   0  0  0  0  0  0  0  0  0  0  0  0
   -2.0498   -7.4473   -1.4451 C   0  0  0  0  0  0  0  0  0  0  0  0
   -0.6638   -7.3980   -0.9094 C   0  0  0  0  0  0  0  0  0  0  0  0
   -0.3102   -8.6765   -0.5205 O   0  0  0  0  0  0  0  0  0  0  0  0
    0.3874   -6.9006   -1.8436 C   0  0  0  0  0  0  0  0  0  0  0  0
    1.0851   -5.8711   -1.1896 O   0  0  0  0  0  0  0  0  0  0  0  0
    1.2740   -8.1108   -2.0350 C   0  0  0  0  0  0  0  0  0  0  0  0
    0.4793   -9.2411   -1.5068 C   0  0  0  0  0  0  0  0  0  0  0  0
   -0.2311  -10.0289   -2.4695 N   0  0  0  0  0  0  0  0  0  0  0  0
   -0.8785  -11.1275   -2.0141 C   0  0  0  0  0  0  0  0  0  0  0  0
   -0.8703  -11.4591   -0.7921 O   0  0  0  0  0  0  0  0  0  0  0  0
   -1.5684  -11.9266   -2.8459 N   0  0  0  0  0  0  0  0  0  0  0  0
   -1.6580  -11.6845   -4.1802 C   0  0  0  0  0  0  0  0  0  0  0  0
   -2.2980  -12.4265   -4.9549 O   0  0  0  0  0  0  0  0  0  0  0  0
   -1.0080  -10.5775   -4.6493 C   0  0  0  0  0  0  0  0  0  0  0  0
   -1.0773  -10.2745   -6.0924 C   0  0  0  0  0  0  0  0  0  0  0  0
   -0.3057   -9.7703   -3.7811 C   0  0  0  0  0  0  0  0  0  0  0  0
    1.1447   -4.4653   -2.0914 P   0  0  0  0  0  0  0  0  0  0  0  0
    2.5404   -4.5857   -3.0778 O   0  0  0  0  0  0  0  0  0  0  0  0
   -0.0284   -4.2882   -2.9941 O   0  0  0  0  0  0  0  0  0  0  0  0
    1.3510   -3.0712   -1.1735 O   0  0  0  0  0  0  0  0  0  0  0  0
    2.6303   -3.1047   -0.6286 C   0  0  0  0  0  0  0  0  0  0  0  0
    2.9223   -1.8141    0.0816 C   0  0  0  0  0  0  0  0  0  0  0  0
    4.2200   -1.8337    0.6385 O   0  0  0  0  0  0  0  0  0  0  0  0
    3.0143   -0.6351   -0.8583 C   0  0  0  0  0  0  0  0  0  0  0  0
    2.8908    0.5882   -0.1892 O   0  0  0  0  0  0  0  0  0  0  0  0
    4.4185   -0.8152   -1.4053 C   0  0  0  0  0  0  0  0  0  0  0  0
    5.1140   -1.7068   -0.3981 C   0  0  0  0  0  0  0  0  0  0  0  0
    6.3391   -1.0672    0.0830 N   0  0  0  0  0  0  0  0  0  0  0  0
    6.8140   -0.9496    1.3203 C   0  0  0  0  0  0  0  0  0  0  0  0
    7.9951   -0.2675    1.2718 N   0  0  0  0  0  0  0  0  0  0  0  0
    8.2438    0.0351   -0.0118 C   0  0  0  0  0  0  0  0  0  0  0  0
    9.2337    0.6896   -0.7129 C   0  0  0  0  0  0  0  0  0  0  0  0
   10.3137    1.2168    0.0493 N   0  0  0  0  0  0  0  0  0  0  0  0
    9.2017    0.8394   -2.0577 N   0  0  0  0  0  0  0  0  0  0  0  0
    8.1705    0.3381   -2.7774 C   0  0  0  0  0  0  0  0  0  0  0  0
    7.1927   -0.3051   -2.1156 N   0  0  0  0  0  0  0  0  0  0  0  0
    7.1933   -0.4702   -0.7863 C   0  0  0  0  0  0  0  0  0  0  0  0
    1.6530    1.4178   -0.9277 P   0  0  0  0  0  0  0  0  0  0  0  0
    2.0436    1.8659   -2.4961 O   0  0  0  0  0  0  0  0  0  0  0  0
    0.4500    0.4724   -1.0471 O   0  0  0  0  0  0  0  0  0  0  0  0
    1.0673    2.7366   -0.0209 O   0  0  0  0  0  0  0  0  0  0  0  0
    0.8217    3.7228   -0.9313 C   0  0  0  0  0  0  0  0  0  0  0  0
   -0.1386    4.7793   -0.6061 C   0  0  0  0  0  0  0  0  0  0  0  0
   -1.4247    4.3168   -0.3335 O   0  0  0  0  0  0  0  0  0  0  0  0
    0.1793    5.7988    0.4106 C   0  0  0  0  0  0  0  0  0  0  0  0
    0.3071    5.3716    1.7214 O   0  0  0  0  0  0  0  0  0  0  0  0
   -1.2076    6.5152    0.3917 C   0  0  0  0  0  0  0  0  0  0  0  0
   -2.0885    5.2897    0.3564 C   0  0  0  0  0  0  0  0  0  0  0  0
   -3.4234    5.5474   -0.1311 N   0  0  0  0  0  0  0  0  0  0  0  0
   -3.7541    5.3995   -1.4280 C   0  0  0  0  0  0  0  0  0  0  0  0
   -2.8982    5.0206   -2.2901 O   0  0  0  0  0  0  0  0  0  0  0  0
   -4.9910    5.6355   -1.9066 N   0  0  0  0  0  0  0  0  0  0  0  0
   -5.9813    6.0404   -1.0894 C   0  0  0  0  0  0  0  0  0  0  0  0
   -7.2865    6.2876   -1.6181 N   0  0  0  0  0  0  0  0  0  0  0  0
   -5.6748    6.2014    0.2457 C   0  0  0  0  0  0  0  0  0  0  0  0
   -4.3836    5.9531    0.7313 C   0  0  0  0  0  0  0  0  0  0  0  0
    1.3172    6.4311    2.5717 P   0  0  0  0  0  0  0  0  0  0  0  0
    0.5005    7.2364    3.5885 O   0  0  0  0  0  0  0  0  0  0  0  0
    2.1175    7.5039    1.5050 O   0  0  0  0  0  0  0  0  0  0  0  0
    2.5260    5.6520    3.4470 O   0  0  0  0  0  0  0  0  0  0  0  0
    2.8537    6.5281    4.4984 C   0  0  0  0  0  0  0  0  0  0  0  0
    4.0999    5.9912    5.1639 C   0  0  0  0  0  0  0  0  0  0  0  0
    5.0831    5.9718    4.1861 O   0  0  0  0  0  0  0  0  0  0  0  0
    3.8406    4.5817    5.6005 C   0  0  0  0  0  0  0  0  0  0  0  0
    4.2985    4.3594    6.9109 O   0  0  0  0  0  0  0  0  0  0  0  0
    4.8206    3.8113    4.7128 C   0  0  0  0  0  0  0  0  0  0  0  0
    5.8712    4.8936    4.4956 C   0  0  0  0  0  0  0  0  0  0  0  0
    6.7545    4.5297    3.4048 N   0  0  0  0  0  0  0  0  0  0  0  0
    7.9132    3.8606    3.5242 C   0  0  0  0  0  0  0  0  0  0  0  0
    8.4752    3.6903    2.3179 N   0  0  0  0  0  0  0  0  0  0  0  0
    7.6438    4.2680    1.4300 C   0  0  0  0  0  0  0  0  0  0  0  0
    7.6907    4.4075    0.0741 C   0  0  0  0  0  0  0  0  0  0  0  0
    8.6582    3.9407   -0.5814 O   0  0  0  0  0  0  0  0  0  0  0  0
    6.7250    5.0352   -0.5908 N   0  0  0  0  0  0  0  0  0  0  0  0
    5.6822    5.5435    0.0770 C   0  0  0  0  0  0  0  0  0  0  0  0
    4.6447    6.2191   -0.6202 N   0  0  0  0  0  0  0  0  0  0  0  0
    5.6231    5.4134    1.4076 N   0  0  0  0  0  0  0  0  0  0  0  0
    6.5727    4.7906    2.1060 C   0  0  0  0  0  0  0  0  0  0  0  0
   -5.5269    3.5107    5.1642 H   0  0  0  0  0  0  0  0  0  0  0  0
   -6.7561    1.0204    5.1060 H   0  0  0  0  0  0  0  0  0  0  0  0
   -6.2049    1.9556    3.7222 H   0  0  0  0  0  0  0  0  0  0  0  0
   -4.4686    0.5905    5.8461 H   0  0  0  0  0  0  0  0  0  0  0  0
   -4.7806   -1.2631    4.4907 H   0  0  0  0  0  0  0  0  0  0  0  0
   -3.0909   -0.9160    2.4844 H   0  0  0  0  0  0  0  0  0  0  0  0
   -2.5703   -0.9153    4.1854 H   0  0  0  0  0  0  0  0  0  0  0  0
   -3.0924    1.4871    2.4606 H   0  0  0  0  0  0  0  0  0  0  0  0
    3.1820    1.7191    2.4790 H   0  0  0  0  0  0  0  0  0  0  0  0
    3.3846    0.9403    4.1296 H   0  0  0  0  0  0  0  0  0  0  0  0
    1.2010    2.3329    5.3245 H   0  0  0  0  0  0  0  0  0  0  0  0
   -1.3226    2.2269    5.3680 H   0  0  0  0  0  0  0  0  0  0  0  0
   -5.5949   -4.4808    0.8774 H   0  0  0  0  0  0  0  0  0  0  0  0
   -6.0070   -2.8682    0.1389 H   0  0  0  0  0  0  0  0  0  0  0  0
   -3.2159   -4.0981    0.1168 H   0  0  0  0  0  0  0  0  0  0  0  0
   -3.4561   -4.4193   -2.2131 H   0  0  0  0  0  0  0  0  0  0  0  0
   -5.0289   -3.1621   -3.4495 H   0  0  0  0  0  0  0  0  0  0  0  0
   -6.1441   -2.9519   -2.0104 H   0  0  0  0  0  0  0  0  0  0  0  0
   -4.9021   -0.9406   -1.7409 H   0  0  0  0  0  0  0  0  0  0  0  0
   -1.4719   -1.9991   -1.6423 H   0  0  0  0  0  0  0  0  0  0  0  0
   -6.0139   -1.1491   -7.3203 H   0  0  0  0  0  0  0  0  0  0  0  0
   -5.4699    0.6153   -7.3968 H   0  0  0  0  0  0  0  0  0  0  0  0
   -5.4094   -1.0698   -4.5069 H   0  0  0  0  0  0  0  0  0  0  0  0
   -2.7579   -7.8094   -0.6398 H   0  0  0  0  0  0  0  0  0  0  0  0
   -2.1783   -8.1896   -2.2650 H   0  0  0  0  0  0  0  0  0  0  0  0
   -0.7044   -6.7950    0.0447 H   0  0  0  0  0  0  0  0  0  0  0  0
    0.0227   -6.4813   -2.7790 H   0  0  0  0  0  0  0  0  0  0  0  0
    1.6929   -8.2110   -3.0366 H   0  0  0  0  0  0  0  0  0  0  0  0
    2.1601   -7.9620   -1.3527 H   0  0  0  0  0  0  0  0  0  0  0  0
    1.1540   -9.9713   -0.9532 H   0  0  0  0  0  0  0  0  0  0  0  0
   -2.0798  -12.7902   -2.5020 H   0  0  0  0  0  0  0  0  0  0  0  0
   -1.7791   -9.4434   -6.3269 H   0  0  0  0  0  0  0  0  0  0  0  0
   -0.0885   -9.9592   -6.4821 H   0  0  0  0  0  0  0  0  0  0  0  0
   -1.3518  -11.1792   -6.6955 H   0  0  0  0  0  0  0  0  0  0  0  0
    0.1867   -8.9180   -4.1819 H   0  0  0  0  0  0  0  0  0  0  0  0
    3.3984   -3.3602   -1.3855 H   0  0  0  0  0  0  0  0  0  0  0  0
    2.7052   -3.9187    0.1534 H   0  0  0  0  0  0  0  0  0  0  0  0
    2.2238   -1.5947    0.8886 H   0  0  0  0  0  0  0  0  0  0  0  0
    2.2586   -0.7687   -1.6505 H   0  0  0  0  0  0  0  0  0  0  0  0
    4.4172   -1.3718   -2.3617 H   0  0  0  0  0  0  0  0  0  0  0  0
    4.8843    0.1666   -1.4724 H   0  0  0  0  0  0  0  0  0  0  0  0
    5.4170   -2.6958   -0.8373 H   0  0  0  0  0  0  0  0  0  0  0  0
    6.3121   -1.3457    2.1977 H   0  0  0  0  0  0  0  0  0  0  0  0
   11.2904    1.2533   -0.3209 H   0  0  0  0  0  0  0  0  0  0  0  0
   10.1351    1.5902    1.0297 H   0  0  0  0  0  0  0  0  0  0  0  0
    8.1113    0.4361   -3.8480 H   0  0  0  0  0  0  0  0  0  0  0  0
    0.4922    3.2448   -1.9036 H   0  0  0  0  0  0  0  0  0  0  0  0
    1.8305    4.1557   -1.2043 H   0  0  0  0  0  0  0  0  0  0  0  0
   -0.2834    5.3728   -1.5752 H   0  0  0  0  0  0  0  0  0  0  0  0
    0.9469    6.5560    0.1376 H   0  0  0  0  0  0  0  0  0  0  0  0
   -1.2336    7.0758   -0.5571 H   0  0  0  0  0  0  0  0  0  0  0  0
   -1.3196    7.1343    1.2814 H   0  0  0  0  0  0  0  0  0  0  0  0
   -2.1748    4.9555    1.4282 H   0  0  0  0  0  0  0  0  0  0  0  0
   -7.8844    5.5261   -1.9987 H   0  0  0  0  0  0  0  0  0  0  0  0
   -7.5892    7.3023   -1.5884 H   0  0  0  0  0  0  0  0  0  0  0  0
   -6.4400    6.5270    0.9441 H   0  0  0  0  0  0  0  0  0  0  0  0
   -4.1767    6.0906    1.7883 H   0  0  0  0  0  0  0  0  0  0  0  0
    2.9968    7.5632    4.1181 H   0  0  0  0  0  0  0  0  0  0  0  0
    2.0532    6.5520    5.2647 H   0  0  0  0  0  0  0  0  0  0  0  0
    4.4053    6.6263    6.0293 H   0  0  0  0  0  0  0  0  0  0  0  0
    2.8017    4.2714    5.4448 H   0  0  0  0  0  0  0  0  0  0  0  0
    3.6665    3.7066    7.3152 H   0  0  0  0  0  0  0  0  0  0  0  0
    5.2011    2.8999    5.1626 H   0  0  0  0  0  0  0  0  0  0  0  0
    4.2753    3.5823    3.7981 H   0  0  0  0  0  0  0  0  0  0  0  0
    6.3719    5.0611    5.4516 H   0  0  0  0  0  0  0  0  0  0  0  0
    8.3412    3.5044    4.4590 H   0  0  0  0  0  0  0  0  0  0  0  0
    4.2732    7.0857   -0.1713 H   0  0  0  0  0  0  0  0  0  0  0  0
    4.2441    5.9103   -1.5261 H   0  0  0  0  0  0  0  0  0  0  0  0
    4.7879    5.8262    1.8803 H   0  0  0  0  0  0  0  0  0  0  0  0
  1  2  1  0
  1121  1  0
  2  3  1  0
  2122  1  0
  2123  1  0
  3  4  1  0
  3  5  1  0
  3124  1  0
  4  8  1  0
  5  7  1  0
  5  6  1  0
  5125  1  0
  6 17  1  0
  7  8  1  0
  7126  1  0
  7127  1  0
  8  9  1  0
  8128  1  0
  9 16  1  0
  9 10  1  0
 10 12  1  0
 10 11  2  0
 12 13  2  0
 13 15  1  0
 13 14  1  0
 14129  1  0
 14130  1  0
 15 16  2  0
 15131  1  0
 16132  1  0
 17 20  1  0
 17 19  2  0
 17 18  1  0
 20 21  1  0
 21 22  1  0
 21133  1  0
 21134  1  0
 22 24  1  0
 22 23  1  0
 22135  1  0
 23 27  1  0
 24 25  1  0
 24 26  1  0
 24136  1  0
 25 39  1  0
 26 27  1  0
 26137  1  0
 26138  1  0
 27 28  1  0
 27139  1  0
 28 38  1  0
 28 29  1  0
 29 30  2  0
 29140  1  0
 30 31  1  0
 31 32  1  0
 31 38  2  0
 32 33  2  0
 32 34  1  0
 34 35  2  0
 35 36  1  0
 35 37  1  0
 36141  1  0
 36142  1  0
 37 38  1  0
 37143  1  0
 39 41  2  0
 39 42  1  0
 39 40  1  0
 42 43  1  0
 43 44  1  0
 43144  1  0
 43145  1  0
 44 46  1  0
 44 45  1  0
 44146  1  0
 45 49  1  0
 46 48  1  0
 46 47  1  0
 46147  1  0
 47 59  1  0
 48 49  1  0
 48148  1  0
 48149  1  0
 49 50  1  0
 49150  1  0
 50 51  1  0
 50 58  1  0
 51 53  1  0
 51 52  2  0
 53 54  1  0
 53151  1  0
 54 55  2  0
 54 56  1  0
 56 57  1  0
 56 58  2  0
 57152  1  0
 57153  1  0
 57154  1  0
 58155  1  0
 59 61  2  0
 59 62  1  0
 59 60  1  0
 62 63  1  0
 63 64  1  0
 63156  1  0
 63157  1  0
 64 66  1  0
 64 65  1  0
 64158  1  0
 65 69  1  0
 66 68  1  0
 66 67  1  0
 66159  1  0
 67 80  1  0
 68 69  1  0
 68160  1  0
 68161  1  0
 69 70  1  0
 69162  1  0
 70 79  1  0
 70 71  1  0
 71 72  2  0
 71163  1  0
 72 73  1  0
 73 79  2  0
 73 74  1  0
 74 76  2  0
 74 75  1  0
 75164  1  0
 75165  1  0
 76 77  1  0
 77 78  2  0
 77166  1  0
 78 79  1  0
 80 83  1  0
 80 82  2  0
 80 81  1  0
 83 84  1  0
 84 85  1  0
 84167  1  0
 84168  1  0
 85 87  1  0
 85 86  1  0
 85169  1  0
 86 90  1  0
 87 88  1  0
 87 89  1  0
 87170  1  0
 88 99  1  0
 89 90  1  0
 89171  1  0
 89172  1  0
 90 91  1  0
 90173  1  0
 91 98  1  0
 91 92  1  0
 92 93  2  0
 92 94  1  0
 94 95  2  0
 95 97  1  0
 95 96  1  0
 96174  1  0
 96175  1  0
 97 98  2  0
 97176  1  0
 98177  1  0
 99100  2  0
 99101  1  0
 99102  1  0
102103  1  0
103104  1  0
103178  1  0
103179  1  0
104105  1  0
104106  1  0
104180  1  0
105109  1  0
106108  1  0
106107  1  0
106181  1  0
107182  1  0
108109  1  0
108183  1  0
108184  1  0
109110  1  0
109185  1  0
110111  1  0
110120  1  0
111112  2  0
111186  1  0
112113  1  0
113114  1  0
113120  2  0
114115  2  0
114116  1  0
116117  2  0
117118  1  0
117119  1  0
118187  1  0
118188  1  0
119120  1  0
119189  1  0
M  CHG  5  18  -1  40  -1  60  -1  81  -1 101  -1
M  END
$$$$
DNA (5'-D(*CP*GP*TP*AP*CP*G)-3')
     RDKit          3D

189203  0  0  0  0  0  0  0  0999 V2000
    2.6342    3.7478   -0.0304 O   0  0  0  0  0  0  0  0  0  0  0  0
    1.4253    3.4972   -0.6848 C   0  0  0  0  0  0  0  0  0  0  0  0
    0.2762    3.7315    0.2681 C   0  0  0  0  0  0  0  0  0  0  0  0
    0.3150    2.9315    1.3719 O   0  0  0  0  0  0  0  0  0  0  0  0
   -1.0603    3.5705   -0.3975 C   0  0  0  0  0  0  0  0  0  0  0  0
   -0.9748    2.7021   -1.4698 O   0  0  0  0  0  0  0  0  0  0  0  0
   -1.8443    2.8686    0.7007 C   0  0  0  0  0  0  0  0  0  0  0  0
   -0.7355    2.0326    1.3016 C   0  0  0  0  0  0  0  0  0  0  0  0
   -1.0608    1.4510    2.5726 N   0  0  0  0  0  0  0  0  0  0  0  0
   -0.5534    0.2114    2.8507 C   0  0  0  0  0  0  0  0  0  0  0  0
    0.1730   -0.3508    1.9682 O   0  0  0  0  0  0  0  0  0  0  0  0
   -0.8006   -0.4135    4.0132 N   0  0  0  0  0  0  0  0  0  0  0  0
   -1.5529    0.1591    4.9382 C   0  0  0  0  0  0  0  0  0  0  0  0
   -1.7997   -0.5381    6.1762 N   0  0  0  0  0  0  0  0  0  0  0  0
   -2.0820    1.3922    4.7106 C   0  0  0  0  0  0  0  0  0  0  0  0
   -1.8129    2.0177    3.5027 C   0  0  0  0  0  0  0  0  0  0  0  0
   -1.6014    3.3527   -2.8963 P   0  0  0  0  0  0  0  0  0  0  0  0
   -0.9917    4.8956   -3.1936 O   0  0  0  0  0  0  0  0  0  0  0  0
   -1.2628    2.3932   -4.0217 O   0  0  0  0  0  0  0  0  0  0  0  0
   -3.2877    3.4680   -2.8334 O   0  0  0  0  0  0  0  0  0  0  0  0
   -3.7362    4.4505   -3.6852 C   0  0  0  0  0  0  0  0  0  0  0  0
   -5.2314    4.6574   -3.6025 C   0  0  0  0  0  0  0  0  0  0  0  0
   -5.6212    5.6740   -4.4822 O   0  0  0  0  0  0  0  0  0  0  0  0
   -6.0365    3.4573   -3.9428 C   0  0  0  0  0  0  0  0  0  0  0  0
   -5.2856    2.4862   -4.5661 O   0  0  0  0  0  0  0  0  0  0  0  0
   -7.1041    4.0218   -4.8915 C   0  0  0  0  0  0  0  0  0  0  0  0
   -7.0199    5.4990   -4.5879 C   0  0  0  0  0  0  0  0  0  0  0  0
   -7.5812    5.7808   -3.2916 N   0  0  0  0  0  0  0  0  0  0  0  0
   -8.5843    5.1697   -2.6430 C   0  0  0  0  0  0  0  0  0  0  0  0
   -8.7819    5.7620   -1.4514 N   0  0  0  0  0  0  0  0  0  0  0  0
   -7.9138    6.7627   -1.3081 C   0  0  0  0  0  0  0  0  0  0  0  0
   -7.6942    7.6757   -0.2853 C   0  0  0  0  0  0  0  0  0  0  0  0
   -8.4251    7.5892    0.7215 O   0  0  0  0  0  0  0  0  0  0  0  0
   -6.7216    8.5936   -0.4257 N   0  0  0  0  0  0  0  0  0  0  0  0
   -5.9807    8.6121   -1.5499 C   0  0  0  0  0  0  0  0  0  0  0  0
   -4.9380    9.5574   -1.7568 N   0  0  0  0  0  0  0  0  0  0  0  0
   -6.1992    7.7181   -2.5464 N   0  0  0  0  0  0  0  0  0  0  0  0
   -7.1551    6.7721   -2.4744 C   0  0  0  0  0  0  0  0  0  0  0  0
   -5.4660    0.9519   -3.9130 P   0  0  0  0  0  0  0  0  0  0  0  0
   -7.0748    0.5327   -3.6550 O   0  0  0  0  0  0  0  0  0  0  0  0
   -4.9194   -0.0242   -4.9625 O   0  0  0  0  0  0  0  0  0  0  0  0
   -4.5733    0.6994   -2.5276 O   0  0  0  0  0  0  0  0  0  0  0  0
   -4.3871   -0.6535   -2.2585 C   0  0  0  0  0  0  0  0  0  0  0  0
   -3.4942   -0.6851   -1.0086 C   0  0  0  0  0  0  0  0  0  0  0  0
   -4.1698   -0.0342   -0.0145 O   0  0  0  0  0  0  0  0  0  0  0  0
   -3.1702   -2.0862   -0.5753 C   0  0  0  0  0  0  0  0  0  0  0  0
   -1.8252   -2.1419   -0.2276 O   0  0  0  0  0  0  0  0  0  0  0  0
   -3.9715   -2.2246    0.6967 C   0  0  0  0  0  0  0  0  0  0  0  0
   -4.0276   -0.7829    1.1514 C   0  0  0  0  0  0  0  0  0  0  0  0
   -5.0479   -0.5060    2.1120 N   0  0  0  0  0  0  0  0  0  0  0  0
   -6.0323    0.3850    1.8451 C   0  0  0  0  0  0  0  0  0  0  0  0
   -6.0846    0.9987    0.7387 O   0  0  0  0  0  0  0  0  0  0  0  0
   -6.9717    0.6231    2.7716 N   0  0  0  0  0  0  0  0  0  0  0  0
   -6.9752    0.0068    3.9655 C   0  0  0  0  0  0  0  0  0  0  0  0
   -7.8710    0.2517    4.8147 O   0  0  0  0  0  0  0  0  0  0  0  0
   -5.9725   -0.9107    4.2568 C   0  0  0  0  0  0  0  0  0  0  0  0
   -5.9330   -1.6244    5.5817 C   0  0  0  0  0  0  0  0  0  0  0  0
   -5.0233   -1.1327    3.2850 C   0  0  0  0  0  0  0  0  0  0  0  0
   -0.9941   -3.3817   -0.9672 P   0  0  0  0  0  0  0  0  0  0  0  0
   -0.5879   -4.5050    0.2466 O   0  0  0  0  0  0  0  0  0  0  0  0
   -1.7947   -4.0509   -2.0623 O   0  0  0  0  0  0  0  0  0  0  0  0
    0.4143   -2.7632   -1.6567 O   0  0  0  0  0  0  0  0  0  0  0  0
    0.3503   -1.4343   -1.9991 C   0  0  0  0  0  0  0  0  0  0  0  0
    1.5855   -1.0441   -2.7361 C   0  0  0  0  0  0  0  0  0  0  0  0
    1.5598    0.3202   -3.1137 O   0  0  0  0  0  0  0  0  0  0  0  0
    2.8529   -1.0626   -1.9189 C   0  0  0  0  0  0  0  0  0  0  0  0
    3.2538   -2.3504   -1.7267 O   0  0  0  0  0  0  0  0  0  0  0  0
    3.7865   -0.2890   -2.8410 C   0  0  0  0  0  0  0  0  0  0  0  0
    2.8278    0.5320   -3.6506 C   0  0  0  0  0  0  0  0  0  0  0  0
    3.1984    1.9301   -3.7014 N   0  0  0  0  0  0  0  0  0  0  0  0
    3.9189    2.5891   -2.7814 C   0  0  0  0  0  0  0  0  0  0  0  0
    4.0626    3.8890   -3.1718 N   0  0  0  0  0  0  0  0  0  0  0  0
    3.4335    4.0418   -4.3333 C   0  0  0  0  0  0  0  0  0  0  0  0
    3.2897    5.1575   -5.1297 C   0  0  0  0  0  0  0  0  0  0  0  0
    3.8623    6.3904   -4.7403 N   0  0  0  0  0  0  0  0  0  0  0  0
    2.5813    5.0161   -6.2848 N   0  0  0  0  0  0  0  0  0  0  0  0
    2.0462    3.8240   -6.6234 C   0  0  0  0  0  0  0  0  0  0  0  0
    2.2046    2.7468   -5.8197 N   0  0  0  0  0  0  0  0  0  0  0  0
    2.8845    2.8145   -4.6783 C   0  0  0  0  0  0  0  0  0  0  0  0
    3.5342   -2.8757   -0.2003 P   0  0  0  0  0  0  0  0  0  0  0  0
    2.4825   -4.1688    0.1517 O   0  0  0  0  0  0  0  0  0  0  0  0
    4.9269   -3.4017    0.0432 O   0  0  0  0  0  0  0  0  0  0  0  0
    3.2580   -1.7237    1.0279 O   0  0  0  0  0  0  0  0  0  0  0  0
    3.3323   -2.5040    2.2051 C   0  0  0  0  0  0  0  0  0  0  0  0
    3.1585   -1.7245    3.4628 C   0  0  0  0  0  0  0  0  0  0  0  0
    4.1432   -0.7765    3.5536 O   0  0  0  0  0  0  0  0  0  0  0  0
    3.5147   -2.6976    4.5975 C   0  0  0  0  0  0  0  0  0  0  0  0
    2.4146   -3.4637    4.9151 O   0  0  0  0  0  0  0  0  0  0  0  0
    3.8945   -1.7051    5.6732 C   0  0  0  0  0  0  0  0  0  0  0  0
    4.5784   -0.6443    4.8429 C   0  0  0  0  0  0  0  0  0  0  0  0
    4.4011    0.6893    5.3623 N   0  0  0  0  0  0  0  0  0  0  0  0
    4.7953    0.9057    6.6479 C   0  0  0  0  0  0  0  0  0  0  0  0
    5.2931   -0.0554    7.3255 O   0  0  0  0  0  0  0  0  0  0  0  0
    4.6571    2.1325    7.1935 N   0  0  0  0  0  0  0  0  0  0  0  0
    4.1329    3.1527    6.4841 C   0  0  0  0  0  0  0  0  0  0  0  0
    4.0063    4.4270    7.0959 N   0  0  0  0  0  0  0  0  0  0  0  0
    3.7281    2.9514    5.1795 C   0  0  0  0  0  0  0  0  0  0  0  0
    3.8774    1.6918    4.6411 C   0  0  0  0  0  0  0  0  0  0  0  0
    2.7398   -5.1031    4.6719 P   0  0  0  0  0  0  0  0  0  0  0  0
    1.4208   -5.7302    4.2092 O   0  0  0  0  0  0  0  0  0  0  0  0
    3.2235   -5.8866    6.0716 O   0  0  0  0  0  0  0  0  0  0  0  0
    3.8766   -5.3535    3.4724 O   0  0  0  0  0  0  0  0  0  0  0  0
    4.6228   -6.5106    3.6233 C   0  0  0  0  0  0  0  0  0  0  0  0
    5.6179   -6.5315    2.4818 C   0  0  0  0  0  0  0  0  0  0  0  0
    4.9739   -6.5331    1.2444 O   0  0  0  0  0  0  0  0  0  0  0  0
    6.4244   -7.7873    2.4131 C   0  0  0  0  0  0  0  0  0  0  0  0
    5.6845   -8.9244    2.7055 O   0  0  0  0  0  0  0  0  0  0  0  0
    6.9103   -7.7811    0.9734 C   0  0  0  0  0  0  0  0  0  0  0  0
    6.0047   -6.7518    0.3313 C   0  0  0  0  0  0  0  0  0  0  0  0
    5.4766   -7.2059   -0.9403 N   0  0  0  0  0  0  0  0  0  0  0  0
    4.8522   -8.3848   -1.1032 C   0  0  0  0  0  0  0  0  0  0  0  0
    4.4858   -8.5092   -2.3872 N   0  0  0  0  0  0  0  0  0  0  0  0
    4.8735   -7.4163   -3.0429 C   0  0  0  0  0  0  0  0  0  0  0  0
    4.7879   -6.9669   -4.3458 C   0  0  0  0  0  0  0  0  0  0  0  0
    4.2088   -7.7428   -5.1615 O   0  0  0  0  0  0  0  0  0  0  0  0
    5.2811   -5.7812   -4.7513 N   0  0  0  0  0  0  0  0  0  0  0  0
    5.8899   -4.9982   -3.8255 C   0  0  0  0  0  0  0  0  0  0  0  0
    6.4184   -3.7391   -4.2275 N   0  0  0  0  0  0  0  0  0  0  0  0
    5.9959   -5.4006   -2.5329 N   0  0  0  0  0  0  0  0  0  0  0  0
    5.5027   -6.5837   -2.1339 C   0  0  0  0  0  0  0  0  0  0  0  0
    3.0526    2.8973    0.3133 H   0  0  0  0  0  0  0  0  0  0  0  0
    1.3722    4.1503   -1.5648 H   0  0  0  0  0  0  0  0  0  0  0  0
    1.4209    2.4029   -0.9292 H   0  0  0  0  0  0  0  0  0  0  0  0
    0.3329    4.7840    0.6194 H   0  0  0  0  0  0  0  0  0  0  0  0
   -1.5242    4.5407   -0.6695 H   0  0  0  0  0  0  0  0  0  0  0  0
   -2.2055    3.6481    1.4082 H   0  0  0  0  0  0  0  0  0  0  0  0
   -2.6763    2.2541    0.3055 H   0  0  0  0  0  0  0  0  0  0  0  0
   -0.4704    1.2821    0.5354 H   0  0  0  0  0  0  0  0  0  0  0  0
   -1.3531   -0.1494    7.0397 H   0  0  0  0  0  0  0  0  0  0  0  0
   -2.3972   -1.3914    6.2126 H   0  0  0  0  0  0  0  0  0  0  0  0
   -2.6907    1.8753    5.4387 H   0  0  0  0  0  0  0  0  0  0  0  0
   -2.2294    2.9847    3.3312 H   0  0  0  0  0  0  0  0  0  0  0  0
   -3.5161    4.2046   -4.7627 H   0  0  0  0  0  0  0  0  0  0  0  0
   -3.1852    5.3986   -3.5106 H   0  0  0  0  0  0  0  0  0  0  0  0
   -5.4147    5.0321   -2.5590 H   0  0  0  0  0  0  0  0  0  0  0  0
   -6.5584    3.0064   -3.0662 H   0  0  0  0  0  0  0  0  0  0  0  0
   -8.1072    3.6157   -4.6502 H   0  0  0  0  0  0  0  0  0  0  0  0
   -6.7966    3.7893   -5.9159 H   0  0  0  0  0  0  0  0  0  0  0  0
   -7.4302    6.1220   -5.3925 H   0  0  0  0  0  0  0  0  0  0  0  0
   -9.1494    4.3389   -3.0014 H   0  0  0  0  0  0  0  0  0  0  0  0
   -3.9473    9.1927   -1.7690 H   0  0  0  0  0  0  0  0  0  0  0  0
   -5.0937   10.5775   -1.8952 H   0  0  0  0  0  0  0  0  0  0  0  0
   -5.6136    7.7466   -3.4137 H   0  0  0  0  0  0  0  0  0  0  0  0
   -3.8688   -1.1352   -3.1124 H   0  0  0  0  0  0  0  0  0  0  0  0
   -5.3563   -1.1262   -2.1033 H   0  0  0  0  0  0  0  0  0  0  0  0
   -2.5667   -0.1221   -1.2809 H   0  0  0  0  0  0  0  0  0  0  0  0
   -3.4435   -2.8535   -1.3261 H   0  0  0  0  0  0  0  0  0  0  0  0
   -4.9867   -2.6389    0.5229 H   0  0  0  0  0  0  0  0  0  0  0  0
   -3.3798   -2.8685    1.3886 H   0  0  0  0  0  0  0  0  0  0  0  0
   -3.0039   -0.5500    1.5227 H   0  0  0  0  0  0  0  0  0  0  0  0
   -7.7486    1.3141    2.5858 H   0  0  0  0  0  0  0  0  0  0  0  0
   -5.2193   -1.0316    6.2219 H   0  0  0  0  0  0  0  0  0  0  0  0
   -5.6436   -2.6728    5.4739 H   0  0  0  0  0  0  0  0  0  0  0  0
   -6.9269   -1.4683    6.0595 H   0  0  0  0  0  0  0  0  0  0  0  0
   -4.2490   -1.8458    3.5171 H   0  0  0  0  0  0  0  0  0  0  0  0
    0.0945   -0.7576   -1.1789 H   0  0  0  0  0  0  0  0  0  0  0  0
   -0.4929   -1.3577   -2.7495 H   0  0  0  0  0  0  0  0  0  0  0  0
    1.7332   -1.5932   -3.6794 H   0  0  0  0  0  0  0  0  0  0  0  0
    2.6895   -0.5301   -0.9704 H   0  0  0  0  0  0  0  0  0  0  0  0
    4.5616    0.2616   -2.3140 H   0  0  0  0  0  0  0  0  0  0  0  0
    4.2031   -1.0683   -3.5425 H   0  0  0  0  0  0  0  0  0  0  0  0
    2.7425    0.1811   -4.7204 H   0  0  0  0  0  0  0  0  0  0  0  0
    4.3558    2.2348   -1.8519 H   0  0  0  0  0  0  0  0  0  0  0  0
    3.4038    7.3222   -4.8699 H   0  0  0  0  0  0  0  0  0  0  0  0
    4.8106    6.4164   -4.2872 H   0  0  0  0  0  0  0  0  0  0  0  0
    1.4985    3.7938   -7.5545 H   0  0  0  0  0  0  0  0  0  0  0  0
    4.3323   -2.9940    2.1557 H   0  0  0  0  0  0  0  0  0  0  0  0
    2.5773   -3.3064    2.0550 H   0  0  0  0  0  0  0  0  0  0  0  0
    2.1416   -1.3341    3.6116 H   0  0  0  0  0  0  0  0  0  0  0  0
    4.3916   -3.2599    4.2527 H   0  0  0  0  0  0  0  0  0  0  0  0
    4.6444   -2.1309    6.3494 H   0  0  0  0  0  0  0  0  0  0  0  0
    2.9998   -1.3165    6.1705 H   0  0  0  0  0  0  0  0  0  0  0  0
    5.6901   -0.8428    4.8168 H   0  0  0  0  0  0  0  0  0  0  0  0
    3.1579    4.9991    7.0104 H   0  0  0  0  0  0  0  0  0  0  0  0
    4.8464    4.7553    7.6497 H   0  0  0  0  0  0  0  0  0  0  0  0
    3.3107    3.7723    4.6165 H   0  0  0  0  0  0  0  0  0  0  0  0
    3.5760    1.4825    3.6194 H   0  0  0  0  0  0  0  0  0  0  0  0
    3.9975   -7.4354    3.5738 H   0  0  0  0  0  0  0  0  0  0  0  0
    5.1965   -6.5626    4.5508 H   0  0  0  0  0  0  0  0  0  0  0  0
    6.3135   -5.6730    2.5573 H   0  0  0  0  0  0  0  0  0  0  0  0
    7.2979   -7.7999    3.0873 H   0  0  0  0  0  0  0  0  0  0  0  0
    4.9407   -9.0238    2.0633 H   0  0  0  0  0  0  0  0  0  0  0  0
    6.8067   -8.7803    0.5019 H   0  0  0  0  0  0  0  0  0  0  0  0
    7.9659   -7.4407    0.9608 H   0  0  0  0  0  0  0  0  0  0  0  0
    6.5442   -5.7837    0.2347 H   0  0  0  0  0  0  0  0  0  0  0  0
    4.6614   -9.1301   -0.3389 H   0  0  0  0  0  0  0  0  0  0  0  0
    6.8353   -3.6096   -5.1695 H   0  0  0  0  0  0  0  0  0  0  0  0
    6.3887   -2.9331   -3.5697 H   0  0  0  0  0  0  0  0  0  0  0  0
    6.4702   -4.7945   -1.8026 H   0  0  0  0  0  0  0  0  0  0  0  0
  1  2  1  0
  1121  1  0
  2  3  1  0
  2122  1  0
  2123  1  0
  3  4  1  0
  3  5  1  0
  3124  1  0
  4  8  1  0
  5  7  1  0
  5  6  1  0
  5125  1  0
  6 17  1  0
  7  8  1  0
  7126  1  0
  7127  1  0
  8  9  1  0
  8128  1  0
  9 16  1  0
  9 10  1  0
 10 12  1  0
 10 11  2  0
 12 13  2  0
 13 15  1  0
 13 14  1  0
 14129  1  0
 14130  1  0
 15 16  2  0
 15131  1  0
 16132  1  0
 17 20  1  0
 17 19  2  0
 17 18  1  0
 20 21  1  0
 21 22  1  0
 21133  1  0
 21134  1  0
 22 24  1  0
 22 23  1  0
 22135  1  0
 23 27  1  0
 24 25  1  0
 24 26  1  0
 24136  1  0
 25 39  1  0
 26 27  1  0
 26137  1  0
 26138  1  0
 27 28  1  0
 27139  1  0
 28 38  1  0
 28 29  1  0
 29 30  2  0
 29140  1  0
 30 31  1  0
 31 32  1  0
 31 38  2  0
 32 33  2  0
 32 34  1  0
 34 35  2  0
 35 36  1  0
 35 37  1  0
 36141  1  0
 36142  1  0
 37 38  1  0
 37143  1  0
 39 41  2  0
 39 42  1  0
 39 40  1  0
 42 43  1  0
 43 44  1  0
 43144  1  0
 43145  1  0
 44 46  1  0
 44 45  1  0
 44146  1  0
 45 49  1  0
 46 48  1  0
 46 47  1  0
 46147  1  0
 47 59  1  0
 48 49  1  0
 48148  1  0
 48149  1  0
 49 50  1  0
 49150  1  0
 50 51  1  0
 50 58  1  0
 51 53  1  0
 51 52  2  0
 53 54  1  0
 53151  1  0
 54 55  2  0
 54 56  1  0
 56 57  1  0
 56 58  2  0
 57152  1  0
 57153  1  0
 57154  1  0
 58155  1  0
 59 61  2  0
 59 62  1  0
 59 60  1  0
 62 63  1  0
 63 64  1  0
 63156  1  0
 63157  1  0
 64 66  1  0
 64 65  1  0
 64158  1  0
 65 69  1  0
 66 68  1  0
 66 67  1  0
 66159  1  0
 67 80  1  0
 68 69  1  0
 68160  1  0
 68161  1  0
 69 70  1  0
 69162  1  0
 70 79  1  0
 70 71  1  0
 71 72  2  0
 71163  1  0
 72 73  1  0
 73 79  2  0
 73 74  1  0
 74 76  2  0
 74 75  1  0
 75164  1  0
 75165  1  0
 76 77  1  0
 77 78  2  0
 77166  1  0
 78 79  1  0
 80 83  1  0
 80 82  2  0
 80 81  1  0
 83 84  1  0
 84 85  1  0
 84167  1  0
 84168  1  0
 85 87  1  0
 85 86  1  0
 85169  1  0
 86 90  1  0
 87 88  1  0
 87 89  1  0
 87170  1  0
 88 99  1  0
 89 90  1  0
 89171  1  0
 89172  1  0
 90 91  1  0
 90173  1  0
 91 98  1  0
 91 92  1  0
 92 93  2  0
 92 94  1  0
 94 95  2  0
 95 97  1  0
 95 96  1  0
 96174  1  0
 96175  1  0
 97 98  2  0
 97176  1  0
 98177  1  0
 99100  2  0
 99101  1  0
 99102  1  0
102103  1  0
103104  1  0
103178  1  0
103179  1  0
104105  1  0
104106  1  0
104180  1  0
105109  1  0
106108  1  0
106107  1  0
106181  1  0
107182  1  0
108109  1  0
108183  1  0
108184  1  0
109110  1  0
109185  1  0
110111  1  0
110120  1  0
111112  2  0
111186  1  0
112113  1  0
113114  1  0
113120  2  0
114115  2  0
114116  1  0
116117  2  0
117118  1  0
117119  1  0
118187  1  0
118188  1  0
119120  1  0
119189  1  0
M  CHG  5  18  -1  40  -1  60  -1  81  -1 101  -1
M  END
$$$$
DNA (5'-D(*CP*GP*TP*AP*CP*G)-3')
     RDKit          3D

189203  0  0  0  0  0  0  0  0999 V2000
    6.3144    0.7454    1.0705 O   0  0  0  0  0  0  0  0  0  0  0  0
    5.9063    1.8213    0.3146 C   0  0  0  0  0  0  0  0  0  0  0  0
    7.1628    2.5946   -0.0477 C   0  0  0  0  0  0  0  0  0  0  0  0
    7.7577    2.9940    1.1274 O   0  0  0  0  0  0  0  0  0  0  0  0
    6.8226    3.7765   -0.8749 C   0  0  0  0  0  0  0  0  0  0  0  0
    5.4960    3.8269   -1.2712 O   0  0  0  0  0  0  0  0  0  0  0  0
    7.0643    4.9340    0.0590 C   0  0  0  0  0  0  0  0  0  0  0  0
    7.6302    4.3366    1.3064 C   0  0  0  0  0  0  0  0  0  0  0  0
    6.8856    4.7013    2.4917 N   0  0  0  0  0  0  0  0  0  0  0  0
    6.8603    6.0342    2.7890 C   0  0  0  0  0  0  0  0  0  0  0  0
    7.4539    6.8796    2.0685 O   0  0  0  0  0  0  0  0  0  0  0  0
    6.1806    6.4546    3.8845 N   0  0  0  0  0  0  0  0  0  0  0  0
    5.5224    5.5900    4.6974 C   0  0  0  0  0  0  0  0  0  0  0  0
    4.8485    6.1601    5.8119 N   0  0  0  0  0  0  0  0  0  0  0  0
    5.5472    4.2633    4.4026 C   0  0  0  0  0  0  0  0  0  0  0  0
    6.2453    3.8175    3.2750 C   0  0  0  0  0  0  0  0  0  0  0  0
    5.2047    3.9607   -2.8888 P   0  0  0  0  0  0  0  0  0  0  0  0
    6.3919    3.4046   -3.9109 O   0  0  0  0  0  0  0  0  0  0  0  0
    4.9746    5.4348   -3.2359 O   0  0  0  0  0  0  0  0  0  0  0  0
    3.6904    3.2187   -3.1894 O   0  0  0  0  0  0  0  0  0  0  0  0
    3.7239    2.3865   -4.2807 C   0  0  0  0  0  0  0  0  0  0  0  0
    2.3134    1.8156   -4.4440 C   0  0  0  0  0  0  0  0  0  0  0  0
    2.2173    0.9605   -5.5135 O   0  0  0  0  0  0  0  0  0  0  0  0
    1.8924    1.0551   -3.1960 C   0  0  0  0  0  0  0  0  0  0  0  0
    0.5791    1.2742   -2.8633 O   0  0  0  0  0  0  0  0  0  0  0  0
    2.2179   -0.3535   -3.5836 C   0  0  0  0  0  0  0  0  0  0  0  0
    2.3539   -0.3372   -5.0911 C   0  0  0  0  0  0  0  0  0  0  0  0
    1.2637   -1.0980   -5.7079 N   0  0  0  0  0  0  0  0  0  0  0  0
    0.3086   -0.6584   -6.5482 C   0  0  0  0  0  0  0  0  0  0  0  0
   -0.5189   -1.6510   -6.9032 N   0  0  0  0  0  0  0  0  0  0  0  0
   -0.1116   -2.7654   -6.2928 C   0  0  0  0  0  0  0  0  0  0  0  0
   -0.6238   -4.0577   -6.3283 C   0  0  0  0  0  0  0  0  0  0  0  0
   -1.6381   -4.3605   -7.0115 O   0  0  0  0  0  0  0  0  0  0  0  0
    0.0230   -4.9934   -5.5861 N   0  0  0  0  0  0  0  0  0  0  0  0
    1.1071   -4.6484   -4.8618 C   0  0  0  0  0  0  0  0  0  0  0  0
    1.7175   -5.7157   -4.1117 N   0  0  0  0  0  0  0  0  0  0  0  0
    1.5988   -3.3954   -4.8310 N   0  0  0  0  0  0  0  0  0  0  0  0
    0.9954   -2.4218   -5.5507 C   0  0  0  0  0  0  0  0  0  0  0  0
    0.3826    2.0818   -1.3957 P   0  0  0  0  0  0  0  0  0  0  0  0
    1.0294    3.6527   -1.6054 O   0  0  0  0  0  0  0  0  0  0  0  0
    1.1737    1.4522   -0.2926 O   0  0  0  0  0  0  0  0  0  0  0  0
   -1.2368    2.2650   -1.0253 O   0  0  0  0  0  0  0  0  0  0  0  0
   -1.5864    1.6664    0.1989 C   0  0  0  0  0  0  0  0  0  0  0  0
   -3.0668    1.9742    0.4165 C   0  0  0  0  0  0  0  0  0  0  0  0
   -3.2365    3.3371    0.4611 O   0  0  0  0  0  0  0  0  0  0  0  0
   -3.5999    1.3889    1.6805 C   0  0  0  0  0  0  0  0  0  0  0  0
   -2.8394    0.3902    2.2418 O   0  0  0  0  0  0  0  0  0  0  0  0
   -3.6292    2.5605    2.6379 C   0  0  0  0  0  0  0  0  0  0  0  0
   -3.7978    3.7036    1.6619 C   0  0  0  0  0  0  0  0  0  0  0  0
   -5.1840    4.1140    1.5479 N   0  0  0  0  0  0  0  0  0  0  0  0
   -5.6991    5.1572    2.2265 C   0  0  0  0  0  0  0  0  0  0  0  0
   -4.9249    5.7910    2.9881 O   0  0  0  0  0  0  0  0  0  0  0  0
   -6.9967    5.5180    2.1016 N   0  0  0  0  0  0  0  0  0  0  0  0
   -7.8459    4.8418    1.2814 C   0  0  0  0  0  0  0  0  0  0  0  0
   -9.0465    5.1560    1.1498 O   0  0  0  0  0  0  0  0  0  0  0  0
   -7.3460    3.7720    0.5766 C   0  0  0  0  0  0  0  0  0  0  0  0
   -8.2315    3.0109   -0.3226 C   0  0  0  0  0  0  0  0  0  0  0  0
   -6.0015    3.4211    0.7246 C   0  0  0  0  0  0  0  0  0  0  0  0
   -3.9139   -0.9160    2.5058 P   0  0  0  0  0  0  0  0  0  0  0  0
   -4.5911   -1.2465    0.9791 O   0  0  0  0  0  0  0  0  0  0  0  0
   -5.0196   -0.5112    3.4718 O   0  0  0  0  0  0  0  0  0  0  0  0
   -3.1225   -2.2833    3.0471 O   0  0  0  0  0  0  0  0  0  0  0  0
   -3.6293   -2.7720    4.2410 C   0  0  0  0  0  0  0  0  0  0  0  0
   -2.8948   -4.0328    4.6620 C   0  0  0  0  0  0  0  0  0  0  0  0
   -3.0122   -5.0335    3.7104 O   0  0  0  0  0  0  0  0  0  0  0  0
   -1.4447   -3.7767    4.9338 C   0  0  0  0  0  0  0  0  0  0  0  0
   -0.9709   -2.8902    3.9669 O   0  0  0  0  0  0  0  0  0  0  0  0
   -0.8573   -5.1558    4.5568 C   0  0  0  0  0  0  0  0  0  0  0  0
   -1.7413   -5.4310    3.3538 C   0  0  0  0  0  0  0  0  0  0  0  0
   -1.6298   -6.7619    2.8446 N   0  0  0  0  0  0  0  0  0  0  0  0
   -2.5449   -7.5503    2.2588 C   0  0  0  0  0  0  0  0  0  0  0  0
   -1.9614   -8.7180    1.9497 N   0  0  0  0  0  0  0  0  0  0  0  0
   -0.6842   -8.7056    2.3231 C   0  0  0  0  0  0  0  0  0  0  0  0
    0.3980   -9.5693    2.2827 C   0  0  0  0  0  0  0  0  0  0  0  0
    0.2083  -10.8531    1.7008 N   0  0  0  0  0  0  0  0  0  0  0  0
    1.5983   -9.2244    2.7702 N   0  0  0  0  0  0  0  0  0  0  0  0
    1.7973   -8.0284    3.3162 C   0  0  0  0  0  0  0  0  0  0  0  0
    0.7585   -7.1768    3.3640 N   0  0  0  0  0  0  0  0  0  0  0  0
   -0.4634   -7.4692    2.8919 C   0  0  0  0  0  0  0  0  0  0  0  0
    0.0049   -1.6727    4.5869 P   0  0  0  0  0  0  0  0  0  0  0  0
    0.3628   -1.8728    6.2167 O   0  0  0  0  0  0  0  0  0  0  0  0
   -0.6508   -0.3464    4.3072 O   0  0  0  0  0  0  0  0  0  0  0  0
    1.4616   -1.7353    3.6920 O   0  0  0  0  0  0  0  0  0  0  0  0
    1.5312   -0.7643    2.7215 C   0  0  0  0  0  0  0  0  0  0  0  0
    2.7686   -1.0098    1.8481 C   0  0  0  0  0  0  0  0  0  0  0  0
    3.8652   -0.9612    2.6657 O   0  0  0  0  0  0  0  0  0  0  0  0
    2.6949   -2.3268    1.1584 C   0  0  0  0  0  0  0  0  0  0  0  0
    1.4007   -2.8057    0.9539 O   0  0  0  0  0  0  0  0  0  0  0  0
    3.4338   -3.2133    2.1720 C   0  0  0  0  0  0  0  0  0  0  0  0
    4.3863   -2.2389    2.7790 C   0  0  0  0  0  0  0  0  0  0  0  0
    4.7715   -2.5542    4.1309 N   0  0  0  0  0  0  0  0  0  0  0  0
    5.1673   -3.8021    4.4207 C   0  0  0  0  0  0  0  0  0  0  0  0
    5.2004   -4.6739    3.5306 O   0  0  0  0  0  0  0  0  0  0  0  0
    5.5444   -4.1786    5.6627 N   0  0  0  0  0  0  0  0  0  0  0  0
    5.5412   -3.2968    6.6961 C   0  0  0  0  0  0  0  0  0  0  0  0
    5.9305   -3.6564    8.0122 N   0  0  0  0  0  0  0  0  0  0  0  0
    5.1344   -2.0046    6.4086 C   0  0  0  0  0  0  0  0  0  0  0  0
    4.7478   -1.6311    5.1216 C   0  0  0  0  0  0  0  0  0  0  0  0
    1.2611   -3.3169   -0.6368 P   0  0  0  0  0  0  0  0  0  0  0  0
    1.0511   -4.8282   -0.7080 O   0  0  0  0  0  0  0  0  0  0  0  0
    2.7107   -3.0241   -1.4847 O   0  0  0  0  0  0  0  0  0  0  0  0
    0.0099   -2.6177   -1.4870 O   0  0  0  0  0  0  0  0  0  0  0  0
   -1.2136   -2.7128   -0.8606 C   0  0  0  0  0  0  0  0  0  0  0  0
   -2.2797   -2.1227   -1.7617 C   0  0  0  0  0  0  0  0  0  0  0  0
   -2.0489   -0.8055   -2.0495 O   0  0  0  0  0  0  0  0  0  0  0  0
   -2.3064   -2.8340   -3.1060 C   0  0  0  0  0  0  0  0  0  0  0  0
   -3.1218   -3.9634   -3.0936 O   0  0  0  0  0  0  0  0  0  0  0  0
   -2.9297   -1.7740   -3.9790 C   0  0  0  0  0  0  0  0  0  0  0  0
   -2.4502   -0.5086   -3.3248 C   0  0  0  0  0  0  0  0  0  0  0  0
   -3.3976    0.5669   -3.4328 N   0  0  0  0  0  0  0  0  0  0  0  0
   -4.6567    0.5212   -2.9556 C   0  0  0  0  0  0  0  0  0  0  0  0
   -5.3060    1.6726   -3.2041 N   0  0  0  0  0  0  0  0  0  0  0  0
   -4.4402    2.4869   -3.8616 C   0  0  0  0  0  0  0  0  0  0  0  0
   -4.5949    3.7867   -4.3519 C   0  0  0  0  0  0  0  0  0  0  0  0
   -5.6747    4.4206   -4.2257 O   0  0  0  0  0  0  0  0  0  0  0  0
   -3.5178    4.3116   -4.9642 N   0  0  0  0  0  0  0  0  0  0  0  0
   -2.3709    3.6310   -5.0950 C   0  0  0  0  0  0  0  0  0  0  0  0
   -1.2915    4.2802   -5.7605 N   0  0  0  0  0  0  0  0  0  0  0  0
   -2.2438    2.3735   -4.6123 N   0  0  0  0  0  0  0  0  0  0  0  0
   -3.2786    1.7866   -3.9893 C   0  0  0  0  0  0  0  0  0  0  0  0
    6.3395   -0.1094    0.5451 H   0  0  0  0  0  0  0  0  0  0  0  0
    5.2139    2.4607    0.8966 H   0  0  0  0  0  0  0  0  0  0  0  0
    5.3673    1.5531   -0.6216 H   0  0  0  0  0  0  0  0  0  0  0  0
    7.9130    1.9146   -0.5366 H   0  0  0  0  0  0  0  0  0  0  0  0
    7.5194    3.8463   -1.7487 H   0  0  0  0  0  0  0  0  0  0  0  0
    7.7283    5.7023   -0.3958 H   0  0  0  0  0  0  0  0  0  0  0  0
    6.0872    5.3910    0.3517 H   0  0  0  0  0  0  0  0  0  0  0  0
    8.6685    4.7548    1.4519 H   0  0  0  0  0  0  0  0  0  0  0  0
    3.9669    5.7906    6.1909 H   0  0  0  0  0  0  0  0  0  0  0  0
    5.2599    7.0135    6.2937 H   0  0  0  0  0  0  0  0  0  0  0  0
    5.0273    3.5797    5.0452 H   0  0  0  0  0  0  0  0  0  0  0  0
    6.2764    2.7668    3.0254 H   0  0  0  0  0  0  0  0  0  0  0  0
    4.4447    1.5549   -4.1626 H   0  0  0  0  0  0  0  0  0  0  0  0
    3.9310    2.9754   -5.1830 H   0  0  0  0  0  0  0  0  0  0  0  0
    1.5967    2.6350   -4.6087 H   0  0  0  0  0  0  0  0  0  0  0  0
    2.5181    1.4655   -2.3758 H   0  0  0  0  0  0  0  0  0  0  0  0
    1.4725   -1.0894   -3.2379 H   0  0  0  0  0  0  0  0  0  0  0  0
    3.2217   -0.6013   -3.1683 H   0  0  0  0  0  0  0  0  0  0  0  0
    3.3449   -0.7155   -5.4348 H   0  0  0  0  0  0  0  0  0  0  0  0
    0.2163    0.3582   -6.8942 H   0  0  0  0  0  0  0  0  0  0  0  0
    2.1572   -5.5315   -3.1782 H   0  0  0  0  0  0  0  0  0  0  0  0
    1.7342   -6.7066   -4.4888 H   0  0  0  0  0  0  0  0  0  0  0  0
    2.4461   -3.1763   -4.2506 H   0  0  0  0  0  0  0  0  0  0  0  0
   -1.0149    2.1390    1.0038 H   0  0  0  0  0  0  0  0  0  0  0  0
   -1.3827    0.5909    0.2347 H   0  0  0  0  0  0  0  0  0  0  0  0
   -3.5802    1.5251   -0.4580 H   0  0  0  0  0  0  0  0  0  0  0  0
   -4.6389    0.9745    1.5967 H   0  0  0  0  0  0  0  0  0  0  0  0
   -4.5336    2.5054    3.2579 H   0  0  0  0  0  0  0  0  0  0  0  0
   -2.7034    2.6611    3.2391 H   0  0  0  0  0  0  0  0  0  0  0  0
   -3.2250    4.5643    2.0636 H   0  0  0  0  0  0  0  0  0  0  0  0
   -7.3515    6.3365    2.6506 H   0  0  0  0  0  0  0  0  0  0  0  0
   -8.3857    3.5190   -1.2956 H   0  0  0  0  0  0  0  0  0  0  0  0
   -7.8133    1.9950   -0.4928 H   0  0  0  0  0  0  0  0  0  0  0  0
   -9.2575    2.8912    0.1086 H   0  0  0  0  0  0  0  0  0  0  0  0
   -5.6769    2.5709    0.1405 H   0  0  0  0  0  0  0  0  0  0  0  0
   -4.7245   -2.9386    4.2290 H   0  0  0  0  0  0  0  0  0  0  0  0
   -3.4245   -1.9906    5.0113 H   0  0  0  0  0  0  0  0  0  0  0  0
   -3.3724   -4.4042    5.5963 H   0  0  0  0  0  0  0  0  0  0  0  0
   -1.1850   -3.5192    5.9600 H   0  0  0  0  0  0  0  0  0  0  0  0
    0.2041   -5.0777    4.3307 H   0  0  0  0  0  0  0  0  0  0  0  0
   -1.1417   -5.8338    5.3681 H   0  0  0  0  0  0  0  0  0  0  0  0
   -1.3949   -4.7044    2.5614 H   0  0  0  0  0  0  0  0  0  0  0  0
   -3.5765   -7.2255    2.0951 H   0  0  0  0  0  0  0  0  0  0  0  0
   -0.2108  -10.8568    0.7365 H   0  0  0  0  0  0  0  0  0  0  0  0
    0.4782  -11.6937    2.2272 H   0  0  0  0  0  0  0  0  0  0  0  0
    2.7346   -7.6770    3.7303 H   0  0  0  0  0  0  0  0  0  0  0  0
    1.7091    0.2137    3.2216 H   0  0  0  0  0  0  0  0  0  0  0  0
    0.6227   -0.6976    2.0952 H   0  0  0  0  0  0  0  0  0  0  0  0
    2.8753   -0.1825    1.1071 H   0  0  0  0  0  0  0  0  0  0  0  0
    3.3021   -2.3538    0.2365 H   0  0  0  0  0  0  0  0  0  0  0  0
    2.7170   -3.5535    2.9444 H   0  0  0  0  0  0  0  0  0  0  0  0
    3.9343   -4.0639    1.6618 H   0  0  0  0  0  0  0  0  0  0  0  0
    5.3202   -2.2487    2.1760 H   0  0  0  0  0  0  0  0  0  0  0  0
    5.6420   -4.5425    8.4863 H   0  0  0  0  0  0  0  0  0  0  0  0
    6.5452   -3.0206    8.5770 H   0  0  0  0  0  0  0  0  0  0  0  0
    5.0965   -1.2225    7.1718 H   0  0  0  0  0  0  0  0  0  0  0  0
    4.4289   -0.6455    4.8636 H   0  0  0  0  0  0  0  0  0  0  0  0
   -1.1520   -2.1733    0.0864 H   0  0  0  0  0  0  0  0  0  0  0  0
   -1.4552   -3.7642   -0.6394 H   0  0  0  0  0  0  0  0  0  0  0  0
   -3.2656   -2.2508   -1.2952 H   0  0  0  0  0  0  0  0  0  0  0  0
   -1.2715   -3.0786   -3.4485 H   0  0  0  0  0  0  0  0  0  0  0  0
   -3.6764   -3.8936   -2.2598 H   0  0  0  0  0  0  0  0  0  0  0  0
   -2.6222   -1.8311   -5.0392 H   0  0  0  0  0  0  0  0  0  0  0  0
   -4.0160   -1.9035   -3.9336 H   0  0  0  0  0  0  0  0  0  0  0  0
   -1.5388   -0.1888   -3.9010 H   0  0  0  0  0  0  0  0  0  0  0  0
   -5.1284   -0.3064   -2.4356 H   0  0  0  0  0  0  0  0  0  0  0  0
   -1.4320    4.5597   -6.7734 H   0  0  0  0  0  0  0  0  0  0  0  0
   -0.3934    4.4715   -5.2631 H   0  0  0  0  0  0  0  0  0  0  0  0
   -1.3397    1.8690   -4.7297 H   0  0  0  0  0  0  0  0  0  0  0  0
  1  2  1  0
  1121  1  0
  2  3  1  0
  2122  1  0
  2123  1  0
  3  4  1  0
  3  5  1  0
  3124  1  0
  4  8  1  0
  5  7  1  0
  5  6  1  0
  5125  1  0
  6 17  1  0
  7  8  1  0
  7126  1  0
  7127  1  0
  8  9  1  0
  8128  1  0
  9 16  1  0
  9 10  1  0
 10 12  1  0
 10 11  2  0
 12 13  2  0
 13 15  1  0
 13 14  1  0
 14129  1  0
 14130  1  0
 15 16  2  0
 15131  1  0
 16132  1  0
 17 20  1  0
 17 19  2  0
 17 18  1  0
 20 21  1  0
 21 22  1  0
 21133  1  0
 21134  1  0
 22 24  1  0
 22 23  1  0
 22135  1  0
 23 27  1  0
 24 25  1  0
 24 26  1  0
 24136  1  0
 25 39  1  0
 26 27  1  0
 26137  1  0
 26138  1  0
 27 28  1  0
 27139  1  0
 28 38  1  0
 28 29  1  0
 29 30  2  0
 29140  1  0
 30 31  1  0
 31 32  1  0
 31 38  2  0
 32 33  2  0
 32 34  1  0
 34 35  2  0
 35 36  1  0
 35 37  1  0
 36141  1  0
 36142  1  0
 37 38  1  0
 37143  1  0
 39 41  2  0
 39 42  1  0
 39 40  1  0
 42 43  1  0
 43 44  1  0
 43144  1  0
 43145  1  0
 44 46  1  0
 44 45  1  0
 44146  1  0
 45 49  1  0
 46 48  1  0
 46 47  1  0
 46147  1  0
 47 59  1  0
 48 49  1  0
 48148  1  0
 48149  1  0
 49 50  1  0
 49150  1  0
 50 51  1  0
 50 58  1  0
 51 53  1  0
 51 52  2  0
 53 54  1  0
 53151  1  0
 54 55  2  0
 54 56  1  0
 56 57  1  0
 56 58  2  0
 57152  1  0
 57153  1  0
 57154  1  0
 58155  1  0
 59 61  2  0
 59 62  1  0
 59 60  1  0
 62 63  1  0
 63 64  1  0
 63156  1  0
 63157  1  0
 64 66  1  0
 64 65  1  0
 64158  1  0
 65 69  1  0
 66 68  1  0
 66 67  1  0
 66159  1  0
 67 80  1  0
 68 69  1  0
 68160  1  0
 68161  1  0
 69 70  1  0
 69162  1  0
 70 79  1  0
 70 71  1  0
 71 72  2  0
 71163  1  0
 72 73  1  0
 73 79  2  0
 73 74  1  0
 74 76  2  0
 74 75  1  0
 75164  1  0
 75165  1  0
 76 77  1  0
 77 78  2  0
 77166  1  0
 78 79  1  0
 80 83  1  0
 80 82  2  0
 80 81  1  0
 83 84  1  0
 84 85  1  0
 84167  1  0
 84168  1  0
 85 87  1  0
 85 86  1  0
 85169  1  0
 86 90  1  0
 87 88  1  0
 87 89  1  0
 87170  1  0
 88 99  1  0
 89 90  1  0
 89171  1  0
 89172  1  0
 90 91  1  0
 90173  1  0
 91 98  1  0
 91 92  1  0
 92 93  2  0
 92 94  1  0
 94 95  2  0
 95 97  1  0
 95 96  1  0
 96174  1  0
 96175  1  0
 97 98  2  0
 97176  1  0
 98177  1  0
 99100  2  0
 99101  1  0
 99102  1  0
102103  1  0
103104  1  0
103178  1  0
103179  1  0
104105  1  0
104106  1  0
104180  1  0
105109  1  0
106108  1  0
106107  1  0
106181  1  0
107182  1  0
108109  1  0
108183  1  0
108184  1  0
109110  1  0
109185  1  0
110111  1  0
110120  1  0
111112  2  0
111186  1  0
112113  1  0
113114  1  0
113120  2  0
114115  2  0
114116  1  0
116117  2  0
117118  1  0
117119  1  0
118187  1  0
118188  1  0
119120  1  0
119189  1  0
M  CHG  5  18  -1  40  -1  60  -1  81  -1 101  -1
M  END
$$$$
DNA (5'-D(*CP*GP*TP*AP*CP*G)-3')
     RDKit          3D

189203  0  0  0  0  0  0  0  0999 V2000
   -3.8993   -1.1760    4.9403 O   0  0  0  0  0  0  0  0  0  0  0  0
   -3.1914   -0.0345    4.5308 C   0  0  0  0  0  0  0  0  0  0  0  0
   -1.9275   -0.4243    3.7980 C   0  0  0  0  0  0  0  0  0  0  0  0
   -1.2466    0.7160    3.4034 O   0  0  0  0  0  0  0  0  0  0  0  0
   -2.3718   -1.1470    2.5157 C   0  0  0  0  0  0  0  0  0  0  0  0
   -1.3715   -1.9323    2.0138 O   0  0  0  0  0  0  0  0  0  0  0  0
   -2.4045    0.0963    1.6016 C   0  0  0  0  0  0  0  0  0  0  0  0
   -1.0385    0.6448    2.0302 C   0  0  0  0  0  0  0  0  0  0  0  0
   -0.6852    1.8749    1.4296 N   0  0  0  0  0  0  0  0  0  0  0  0
   -0.6717    2.0531    0.0979 C   0  0  0  0  0  0  0  0  0  0  0  0
   -0.9852    1.1037   -0.6986 O   0  0  0  0  0  0  0  0  0  0  0  0
   -0.3374    3.2093   -0.4981 N   0  0  0  0  0  0  0  0  0  0  0  0
    0.0166    4.2979    0.2126 C   0  0  0  0  0  0  0  0  0  0  0  0
    0.3737    5.5337   -0.4199 N   0  0  0  0  0  0  0  0  0  0  0  0
    0.0152    4.1542    1.5927 C   0  0  0  0  0  0  0  0  0  0  0  0
   -0.3341    2.9483    2.2000 C   0  0  0  0  0  0  0  0  0  0  0  0
   -1.7479   -3.5328    1.7231 P   0  0  0  0  0  0  0  0  0  0  0  0
   -3.0814   -4.0940    2.5537 O   0  0  0  0  0  0  0  0  0  0  0  0
   -2.0311   -3.6731    0.2431 O   0  0  0  0  0  0  0  0  0  0  0  0
   -0.3532   -4.4986    2.0243 O   0  0  0  0  0  0  0  0  0  0  0  0
    0.6953   -3.8469    1.3747 C   0  0  0  0  0  0  0  0  0  0  0  0
    2.0228   -4.2791    2.0264 C   0  0  0  0  0  0  0  0  0  0  0  0
    1.9725   -3.9362    3.3470 O   0  0  0  0  0  0  0  0  0  0  0  0
    3.1452   -3.4725    1.4464 C   0  0  0  0  0  0  0  0  0  0  0  0
    3.7295   -3.9903    0.3201 O   0  0  0  0  0  0  0  0  0  0  0  0
    4.1029   -3.3975    2.6465 C   0  0  0  0  0  0  0  0  0  0  0  0
    3.0470   -3.1743    3.7132 C   0  0  0  0  0  0  0  0  0  0  0  0
    3.5069   -3.3227    5.0503 N   0  0  0  0  0  0  0  0  0  0  0  0
    4.2016   -4.3312    5.5878 C   0  0  0  0  0  0  0  0  0  0  0  0
    4.4396   -4.0855    6.8983 N   0  0  0  0  0  0  0  0  0  0  0  0
    3.8968   -2.9076    7.2216 C   0  0  0  0  0  0  0  0  0  0  0  0
    3.7880   -2.1191    8.3482 C   0  0  0  0  0  0  0  0  0  0  0  0
    4.3227   -2.5600    9.4041 O   0  0  0  0  0  0  0  0  0  0  0  0
    3.1352   -0.9333    8.3044 N   0  0  0  0  0  0  0  0  0  0  0  0
    2.5715   -0.4767    7.1793 C   0  0  0  0  0  0  0  0  0  0  0  0
    1.8761    0.7673    7.0968 N   0  0  0  0  0  0  0  0  0  0  0  0
    2.6674   -1.2369    6.0635 N   0  0  0  0  0  0  0  0  0  0  0  0
    3.3149   -2.4334    6.0670 C   0  0  0  0  0  0  0  0  0  0  0  0
    3.6298   -2.7564   -0.8642 P   0  0  0  0  0  0  0  0  0  0  0  0
    2.0485   -2.2583   -1.1157 O   0  0  0  0  0  0  0  0  0  0  0  0
    4.4867   -1.5577   -0.4718 O   0  0  0  0  0  0  0  0  0  0  0  0
    4.2221   -3.3334   -2.3341 O   0  0  0  0  0  0  0  0  0  0  0  0
    5.2551   -4.2483   -2.1472 C   0  0  0  0  0  0  0  0  0  0  0  0
    5.7738   -4.8205   -3.4470 C   0  0  0  0  0  0  0  0  0  0  0  0
    6.7807   -5.7085   -3.1877 O   0  0  0  0  0  0  0  0  0  0  0  0
    4.6957   -5.5561   -4.2065 C   0  0  0  0  0  0  0  0  0  0  0  0
    3.4263   -5.1262   -3.8794 O   0  0  0  0  0  0  0  0  0  0  0  0
    4.8636   -6.9600   -3.6225 C   0  0  0  0  0  0  0  0  0  0  0  0
    6.2644   -6.9711   -3.0982 C   0  0  0  0  0  0  0  0  0  0  0  0
    6.3212   -7.5328   -1.7748 N   0  0  0  0  0  0  0  0  0  0  0  0
    5.6527   -8.6676   -1.5055 C   0  0  0  0  0  0  0  0  0  0  0  0
    4.9735   -9.2517   -2.4039 O   0  0  0  0  0  0  0  0  0  0  0  0
    5.6818   -9.2198   -0.2786 N   0  0  0  0  0  0  0  0  0  0  0  0
    6.3674   -8.6908    0.7524 C   0  0  0  0  0  0  0  0  0  0  0  0
    6.3793   -9.2348    1.9031 O   0  0  0  0  0  0  0  0  0  0  0  0
    7.0668   -7.5209    0.5070 C   0  0  0  0  0  0  0  0  0  0  0  0
    7.8568   -6.8773    1.6162 C   0  0  0  0  0  0  0  0  0  0  0  0
    7.0150   -6.9864   -0.7544 C   0  0  0  0  0  0  0  0  0  0  0  0
    2.4404   -4.7805   -5.1811 P   0  0  0  0  0  0  0  0  0  0  0  0
    1.3710   -6.0828   -5.4384 O   0  0  0  0  0  0  0  0  0  0  0  0
    3.2238   -4.5681   -6.4293 O   0  0  0  0  0  0  0  0  0  0  0  0
    1.5385   -3.3850   -4.7721 O   0  0  0  0  0  0  0  0  0  0  0  0
    2.1815   -2.2226   -5.1348 C   0  0  0  0  0  0  0  0  0  0  0  0
    1.4838   -0.9603   -4.7446 C   0  0  0  0  0  0  0  0  0  0  0  0
    2.2594    0.0999   -5.1754 O   0  0  0  0  0  0  0  0  0  0  0  0
    0.1232   -0.7810   -5.3729 C   0  0  0  0  0  0  0  0  0  0  0  0
   -0.5591   -1.9686   -5.5805 O   0  0  0  0  0  0  0  0  0  0  0  0
    0.4864   -0.0915   -6.6673 C   0  0  0  0  0  0  0  0  0  0  0  0
    1.6991    0.6834   -6.2753 C   0  0  0  0  0  0  0  0  0  0  0  0
    1.2975    2.0451   -5.9219 N   0  0  0  0  0  0  0  0  0  0  0  0
    1.5661    2.6726   -4.7380 C   0  0  0  0  0  0  0  0  0  0  0  0
    1.0412    3.9152   -4.7837 N   0  0  0  0  0  0  0  0  0  0  0  0
    0.4513    4.0654   -5.9768 C   0  0  0  0  0  0  0  0  0  0  0  0
   -0.2208    5.1568   -6.4888 C   0  0  0  0  0  0  0  0  0  0  0  0
   -0.3512    6.3342   -5.7042 N   0  0  0  0  0  0  0  0  0  0  0  0
   -0.7213    5.0439   -7.7210 N   0  0  0  0  0  0  0  0  0  0  0  0
   -0.5756    3.9053   -8.4378 C   0  0  0  0  0  0  0  0  0  0  0  0
    0.0769    2.8248   -7.9587 N   0  0  0  0  0  0  0  0  0  0  0  0
    0.5989    2.8938   -6.7196 C   0  0  0  0  0  0  0  0  0  0  0  0
   -2.0156   -1.8816   -4.7361 P   0  0  0  0  0  0  0  0  0  0  0  0
   -1.6705   -1.9495   -3.0752 O   0  0  0  0  0  0  0  0  0  0  0  0
   -2.9327   -3.0438   -5.0401 O   0  0  0  0  0  0  0  0  0  0  0  0
   -2.8782   -0.4613   -5.0483 O   0  0  0  0  0  0  0  0  0  0  0  0
   -3.7370   -0.1365   -4.0314 C   0  0  0  0  0  0  0  0  0  0  0  0
   -4.5094    1.1282   -4.2851 C   0  0  0  0  0  0  0  0  0  0  0  0
   -3.7370    2.2539   -4.4589 O   0  0  0  0  0  0  0  0  0  0  0  0
   -5.4142    1.3788   -3.0647 C   0  0  0  0  0  0  0  0  0  0  0  0
   -4.7074    1.0236   -1.9250 O   0  0  0  0  0  0  0  0  0  0  0  0
   -5.4736    2.9024   -3.1701 C   0  0  0  0  0  0  0  0  0  0  0  0
   -3.9740    3.1187   -3.4276 C   0  0  0  0  0  0  0  0  0  0  0  0
   -3.6783    4.4922   -3.6631 N   0  0  0  0  0  0  0  0  0  0  0  0
   -3.1512    5.2451   -2.6584 C   0  0  0  0  0  0  0  0  0  0  0  0
   -2.9079    4.7713   -1.5193 O   0  0  0  0  0  0  0  0  0  0  0  0
   -2.8736    6.5582   -2.8860 N   0  0  0  0  0  0  0  0  0  0  0  0
   -3.0928    7.1541   -4.0543 C   0  0  0  0  0  0  0  0  0  0  0  0
   -2.7971    8.5309   -4.2668 N   0  0  0  0  0  0  0  0  0  0  0  0
   -3.6307    6.3807   -5.0766 C   0  0  0  0  0  0  0  0  0  0  0  0
   -3.9240    5.0322   -4.8681 C   0  0  0  0  0  0  0  0  0  0  0  0
   -5.5079   -0.0762   -0.9328 P   0  0  0  0  0  0  0  0  0  0  0  0
   -6.8139   -0.5445   -1.4795 O   0  0  0  0  0  0  0  0  0  0  0  0
   -4.5046   -1.4334   -0.8030 O   0  0  0  0  0  0  0  0  0  0  0  0
   -5.6583    0.5556    0.6544 O   0  0  0  0  0  0  0  0  0  0  0  0
   -6.8798    1.2335    0.7786 C   0  0  0  0  0  0  0  0  0  0  0  0
   -6.9491    2.0977    2.0016 C   0  0  0  0  0  0  0  0  0  0  0  0
   -5.9320    3.0354    1.9151 O   0  0  0  0  0  0  0  0  0  0  0  0
   -6.7335    1.2952    3.2366 C   0  0  0  0  0  0  0  0  0  0  0  0
   -7.9823    0.9812    3.7907 O   0  0  0  0  0  0  0  0  0  0  0  0
   -6.0695    2.3464    4.1318 C   0  0  0  0  0  0  0  0  0  0  0  0
   -5.2717    3.1045    3.1245 C   0  0  0  0  0  0  0  0  0  0  0  0
   -5.1748    4.4945    3.5969 N   0  0  0  0  0  0  0  0  0  0  0  0
   -6.2266    5.3321    3.6514 C   0  0  0  0  0  0  0  0  0  0  0  0
   -5.8081    6.5331    4.1292 N   0  0  0  0  0  0  0  0  0  0  0  0
   -4.4840    6.4007    4.3609 C   0  0  0  0  0  0  0  0  0  0  0  0
   -3.5128    7.2524    4.8392 C   0  0  0  0  0  0  0  0  0  0  0  0
   -3.8743    8.4203    5.1439 O   0  0  0  0  0  0  0  0  0  0  0  0
   -2.2484    6.8874    4.9823 N   0  0  0  0  0  0  0  0  0  0  0  0
   -1.8719    5.6390    4.6541 C   0  0  0  0  0  0  0  0  0  0  0  0
   -0.5005    5.3153    4.8292 N   0  0  0  0  0  0  0  0  0  0  0  0
   -2.7821    4.7558    4.1786 N   0  0  0  0  0  0  0  0  0  0  0  0
   -4.0674    5.1187    4.0301 C   0  0  0  0  0  0  0  0  0  0  0  0
   -3.3285   -1.9641    4.9420 H   0  0  0  0  0  0  0  0  0  0  0  0
   -2.9668    0.6234    5.4090 H   0  0  0  0  0  0  0  0  0  0  0  0
   -3.8406    0.4878    3.8332 H   0  0  0  0  0  0  0  0  0  0  0  0
   -1.3773   -1.0877    4.4758 H   0  0  0  0  0  0  0  0  0  0  0  0
   -3.3509   -1.5970    2.6310 H   0  0  0  0  0  0  0  0  0  0  0  0
   -2.4544   -0.1852    0.5537 H   0  0  0  0  0  0  0  0  0  0  0  0
   -3.1490    0.8280    1.9435 H   0  0  0  0  0  0  0  0  0  0  0  0
   -0.3135   -0.1877    1.8543 H   0  0  0  0  0  0  0  0  0  0  0  0
   -0.3178    6.3274   -0.4900 H   0  0  0  0  0  0  0  0  0  0  0  0
    1.3391    5.5923   -0.7937 H   0  0  0  0  0  0  0  0  0  0  0  0
    0.2997    5.0282    2.1568 H   0  0  0  0  0  0  0  0  0  0  0  0
   -0.3184    2.8863    3.2754 H   0  0  0  0  0  0  0  0  0  0  0  0
    0.6834   -4.1540    0.3212 H   0  0  0  0  0  0  0  0  0  0  0  0
    0.6629   -2.7578    1.4297 H   0  0  0  0  0  0  0  0  0  0  0  0
    2.1604   -5.3750    1.8508 H   0  0  0  0  0  0  0  0  0  0  0  0
    2.7734   -2.4370    1.2749 H   0  0  0  0  0  0  0  0  0  0  0  0
    4.7553   -2.5318    2.4868 H   0  0  0  0  0  0  0  0  0  0  0  0
    4.6709   -4.3188    2.7862 H   0  0  0  0  0  0  0  0  0  0  0  0
    2.7377   -2.0950    3.5746 H   0  0  0  0  0  0  0  0  0  0  0  0
    4.5176   -5.2047    5.0400 H   0  0  0  0  0  0  0  0  0  0  0  0
    2.3140    1.6862    7.3179 H   0  0  0  0  0  0  0  0  0  0  0  0
    0.8765    0.7416    6.7962 H   0  0  0  0  0  0  0  0  0  0  0  0
    2.2175   -0.8651    5.1825 H   0  0  0  0  0  0  0  0  0  0  0  0
    6.0855   -3.7080   -1.6488 H   0  0  0  0  0  0  0  0  0  0  0  0
    4.9437   -5.0577   -1.4576 H   0  0  0  0  0  0  0  0  0  0  0  0
    6.1562   -4.0146   -4.1044 H   0  0  0  0  0  0  0  0  0  0  0  0
    4.9043   -5.6173   -5.2760 H   0  0  0  0  0  0  0  0  0  0  0  0
    4.1810   -7.0552   -2.7375 H   0  0  0  0  0  0  0  0  0  0  0  0
    4.6813   -7.7411   -4.3802 H   0  0  0  0  0  0  0  0  0  0  0  0
    6.8883   -7.6365   -3.7513 H   0  0  0  0  0  0  0  0  0  0  0  0
    5.1562  -10.1165   -0.0598 H   0  0  0  0  0  0  0  0  0  0  0  0
    7.5351   -7.2586    2.5954 H   0  0  0  0  0  0  0  0  0  0  0  0
    8.9300   -7.0695    1.4962 H   0  0  0  0  0  0  0  0  0  0  0  0
    7.6163   -5.7878    1.5927 H   0  0  0  0  0  0  0  0  0  0  0  0
    7.5700   -6.0654   -0.9328 H   0  0  0  0  0  0  0  0  0  0  0  0
    3.2358   -2.2177   -4.8142 H   0  0  0  0  0  0  0  0  0  0  0  0
    2.2110   -2.2263   -6.2600 H   0  0  0  0  0  0  0  0  0  0  0  0
    1.3732   -0.8863   -3.6276 H   0  0  0  0  0  0  0  0  0  0  0  0
   -0.4495   -0.0717   -4.7356 H   0  0  0  0  0  0  0  0  0  0  0  0
   -0.2932    0.6169   -7.0007 H   0  0  0  0  0  0  0  0  0  0  0  0
    0.6847   -0.8418   -7.4637 H   0  0  0  0  0  0  0  0  0  0  0  0
    2.4351    0.7242   -7.1137 H   0  0  0  0  0  0  0  0  0  0  0  0
    2.1118    2.2056   -3.9316 H   0  0  0  0  0  0  0  0  0  0  0  0
   -0.0914    6.3133   -4.6939 H   0  0  0  0  0  0  0  0  0  0  0  0
   -0.7111    7.2205   -6.1568 H   0  0  0  0  0  0  0  0  0  0  0  0
   -1.0175    3.9100   -9.4215 H   0  0  0  0  0  0  0  0  0  0  0  0
   -4.5095   -0.9520   -3.9444 H   0  0  0  0  0  0  0  0  0  0  0  0
   -3.1984   -0.0741   -3.0713 H   0  0  0  0  0  0  0  0  0  0  0  0
   -5.1795    1.0313   -5.1545 H   0  0  0  0  0  0  0  0  0  0  0  0
   -6.3847    0.9087   -3.1898 H   0  0  0  0  0  0  0  0  0  0  0  0
   -5.7935    3.3732   -2.2220 H   0  0  0  0  0  0  0  0  0  0  0  0
   -6.0875    3.1333   -4.0430 H   0  0  0  0  0  0  0  0  0  0  0  0
   -3.4513    2.7037   -2.5271 H   0  0  0  0  0  0  0  0  0  0  0  0
   -2.3400    9.0759   -3.5137 H   0  0  0  0  0  0  0  0  0  0  0  0
   -3.0548    8.9619   -5.1953 H   0  0  0  0  0  0  0  0  0  0  0  0
   -3.8020    6.8736   -6.0117 H   0  0  0  0  0  0  0  0  0  0  0  0
   -4.3430    4.4422   -5.6765 H   0  0  0  0  0  0  0  0  0  0  0  0
   -6.9365    1.9158   -0.0938 H   0  0  0  0  0  0  0  0  0  0  0  0
   -7.7408    0.5463    0.6747 H   0  0  0  0  0  0  0  0  0  0  0  0
   -7.9133    2.6258    1.9674 H   0  0  0  0  0  0  0  0  0  0  0  0
   -6.1142    0.4029    3.0914 H   0  0  0  0  0  0  0  0  0  0  0  0
   -7.8236    0.8097    4.7533 H   0  0  0  0  0  0  0  0  0  0  0  0
   -5.4450    1.9182    4.9128 H   0  0  0  0  0  0  0  0  0  0  0  0
   -6.8627    2.9431    4.6115 H   0  0  0  0  0  0  0  0  0  0  0  0
   -4.2515    2.6895    2.9947 H   0  0  0  0  0  0  0  0  0  0  0  0
   -7.2708    5.1414    3.3706 H   0  0  0  0  0  0  0  0  0  0  0  0
   -0.1514    4.4719    5.3246 H   0  0  0  0  0  0  0  0  0  0  0  0
    0.2292    5.9677    4.4342 H   0  0  0  0  0  0  0  0  0  0  0  0
   -2.4887    3.7977    3.9274 H   0  0  0  0  0  0  0  0  0  0  0  0
  1  2  1  0
  1121  1  0
  2  3  1  0
  2122  1  0
  2123  1  0
  3  4  1  0
  3  5  1  0
  3124  1  0
  4  8  1  0
  5  7  1  0
  5  6  1  0
  5125  1  0
  6 17  1  0
  7  8  1  0
  7126  1  0
  7127  1  0
  8  9  1  0
  8128  1  0
  9 16  1  0
  9 10  1  0
 10 12  1  0
 10 11  2  0
 12 13  2  0
 13 15  1  0
 13 14  1  0
 14129  1  0
 14130  1  0
 15 16  2  0
 15131  1  0
 16132  1  0
 17 20  1  0
 17 19  2  0
 17 18  1  0
 20 21  1  0
 21 22  1  0
 21133  1  0
 21134  1  0
 22 24  1  0
 22 23  1  0
 22135  1  0
 23 27  1  0
 24 25  1  0
 24 26  1  0
 24136  1  0
 25 39  1  0
 26 27  1  0
 26137  1  0
 26138  1  0
 27 28  1  0
 27139  1  0
 28 38  1  0
 28 29  1  0
 29 30  2  0
 29140  1  0
 30 31  1  0
 31 32  1  0
 31 38  2  0
 32 33  2  0
 32 34  1  0
 34 35  2  0
 35 36  1  0
 35 37  1  0
 36141  1  0
 36142  1  0
 37 38  1  0
 37143  1  0
 39 41  2  0
 39 42  1  0
 39 40  1  0
 42 43  1  0
 43 44  1  0
 43144  1  0
 43145  1  0
 44 46  1  0
 44 45  1  0
 44146  1  0
 45 49  1  0
 46 48  1  0
 46 47  1  0
 46147  1  0
 47 59  1  0
 48 49  1  0
 48148  1  0
 48149  1  0
 49 50  1  0
 49150  1  0
 50 51  1  0
 50 58  1  0
 51 53  1  0
 51 52  2  0
 53 54  1  0
 53151  1  0
 54 55  2  0
 54 56  1  0
 56 57  1  0
 56 58  2  0
 57152  1  0
 57153  1  0
 57154  1  0
 58155  1  0
 59 61  2  0
 59 62  1  0
 59 60  1  0
 62 63  1  0
 63 64  1  0
 63156  1  0
 63157  1  0
 64 66  1  0
 64 65  1  0
 64158  1  0
 65 69  1  0
 66 68  1  0
 66 67  1  0
 66159  1  0
 67 80  1  0
 68 69  1  0
 68160  1  0
 68161  1  0
 69 70  1  0
 69162  1  0
 70 79  1  0
 70 71  1  0
 71 72  2  0
 71163  1  0
 72 73  1  0
 73 79  2  0
 73 74  1  0
 74 76  2  0
 74 75  1  0
 75164  1  0
 75165  1  0
 76 77  1  0
 77 78  2  0
 77166  1  0
 78 79  1  0
 80 83  1  0
 80 82  2  0
 80 81  1  0
 83 84  1  0
 84 85  1  0
 84167  1  0
 84168  1  0
 85 87  1  0
 85 86  1  0
 85169  1  0
 86 90  1  0
 87 88  1  0
 87 89  1  0
 87170  1  0
 88 99  1  0
 89 90  1  0
 89171  1  0
 89172  1  0
 90 91  1  0
 90173  1  0
 91 98  1  0
 91 92  1  0
 92 93  2  0
 92 94  1  0
 94 95  2  0
 95 97  1  0
 95 96  1  0
 96174  1  0
 96175  1  0
 97 98  2  0
 97176  1  0
 98177  1  0
 99100  2  0
 99101  1  0
 99102  1  0
102103  1  0
103104  1  0
103178  1  0
103179  1  0
104105  1  0
104106  1  0
104180  1  0
105109  1  0
106108  1  0
106107  1  0
106181  1  0
107182  1  0
108109  1  0
108183  1  0
108184  1  0
109110  1  0
109185  1  0
110111  1  0
110120  1  0
111112  2  0
111186  1  0
112113  1  0
113114  1  0
113120  2  0
114115  2  0
114116  1  0
116117  2  0
117118  1  0
117119  1  0
118187  1  0
118188  1  0
119120  1  0
119189  1  0
M  CHG  5  18  -1  40  -1  60  -1  81  -1 101  -1
M  END
$$$$
DNA (5'-D(*CP*GP*TP*AP*CP*G)-3')
     RDKit          3D

189203  0  0  0  0  0  0  0  0999 V2000
    5.0089   -6.7544   -0.2234 O   0  0  0  0  0  0  0  0  0  0  0  0
    5.4210   -8.0814   -0.2597 C   0  0  0  0  0  0  0  0  0  0  0  0
    4.4029   -9.0271    0.3785 C   0  0  0  0  0  0  0  0  0  0  0  0
    4.2359   -8.6485    1.6978 O   0  0  0  0  0  0  0  0  0  0  0  0
    3.0796   -8.9955   -0.3109 C   0  0  0  0  0  0  0  0  0  0  0  0
    2.6955  -10.1596   -0.9291 O   0  0  0  0  0  0  0  0  0  0  0  0
    2.1496   -8.7040    0.8695 C   0  0  0  0  0  0  0  0  0  0  0  0
    3.1214   -7.8633    1.7125 C   0  0  0  0  0  0  0  0  0  0  0  0
    2.6019   -7.6308    3.0494 N   0  0  0  0  0  0  0  0  0  0  0  0
    2.5337   -6.3861    3.5702 C   0  0  0  0  0  0  0  0  0  0  0  0
    2.9302   -5.4241    2.8748 O   0  0  0  0  0  0  0  0  0  0  0  0
    2.0588   -6.1314    4.8028 N   0  0  0  0  0  0  0  0  0  0  0  0
    1.6144   -7.1075    5.6104 C   0  0  0  0  0  0  0  0  0  0  0  0
    1.1161   -6.8136    6.9143 N   0  0  0  0  0  0  0  0  0  0  0  0
    1.6664   -8.4015    5.1150 C   0  0  0  0  0  0  0  0  0  0  0  0
    2.1622   -8.6388    3.8372 C   0  0  0  0  0  0  0  0  0  0  0  0
    2.0418   -9.7916   -2.4577 P   0  0  0  0  0  0  0  0  0  0  0  0
    1.5301  -11.2435   -3.1765 O   0  0  0  0  0  0  0  0  0  0  0  0
    3.0500   -9.1574   -3.3724 O   0  0  0  0  0  0  0  0  0  0  0  0
    0.6802   -8.8192   -2.3048 O   0  0  0  0  0  0  0  0  0  0  0  0
    0.7558   -7.6219   -3.0074 C   0  0  0  0  0  0  0  0  0  0  0  0
   -0.4378   -6.8004   -2.5449 C   0  0  0  0  0  0  0  0  0  0  0  0
   -0.2495   -6.6442   -1.1548 O   0  0  0  0  0  0  0  0  0  0  0  0
   -0.4076   -5.3799   -2.9934 C   0  0  0  0  0  0  0  0  0  0  0  0
   -0.3767   -5.1621   -4.3431 O   0  0  0  0  0  0  0  0  0  0  0  0
    0.8072   -4.8558   -2.2432 C   0  0  0  0  0  0  0  0  0  0  0  0
    0.6996   -5.6756   -0.9693 C   0  0  0  0  0  0  0  0  0  0  0  0
    0.4161   -4.8455    0.1776 N   0  0  0  0  0  0  0  0  0  0  0  0
    1.1478   -3.7386    0.4948 C   0  0  0  0  0  0  0  0  0  0  0  0
    0.6497   -3.1750    1.6086 N   0  0  0  0  0  0  0  0  0  0  0  0
   -0.4120   -3.9016    2.0353 C   0  0  0  0  0  0  0  0  0  0  0  0
   -1.2909   -3.7899    3.1086 C   0  0  0  0  0  0  0  0  0  0  0  0
   -1.1467   -2.8500    3.9009 O   0  0  0  0  0  0  0  0  0  0  0  0
   -2.2602   -4.7351    3.2140 N   0  0  0  0  0  0  0  0  0  0  0  0
   -2.3896   -5.7434    2.3382 C   0  0  0  0  0  0  0  0  0  0  0  0
   -3.4230   -6.7404    2.4592 N   0  0  0  0  0  0  0  0  0  0  0  0
   -1.5179   -5.8113    1.3167 N   0  0  0  0  0  0  0  0  0  0  0  0
   -0.5250   -4.9302    1.1211 C   0  0  0  0  0  0  0  0  0  0  0  0
   -1.7084   -4.1323   -4.6883 P   0  0  0  0  0  0  0  0  0  0  0  0
   -1.5453   -3.4235   -6.1898 O   0  0  0  0  0  0  0  0  0  0  0  0
   -2.9204   -5.0490   -4.7237 O   0  0  0  0  0  0  0  0  0  0  0  0
   -1.9236   -3.0531   -3.4325 O   0  0  0  0  0  0  0  0  0  0  0  0
   -3.0689   -2.2973   -3.4978 C   0  0  0  0  0  0  0  0  0  0  0  0
   -3.1326   -1.4849   -2.1994 C   0  0  0  0  0  0  0  0  0  0  0  0
   -3.1717   -2.3181   -1.1087 O   0  0  0  0  0  0  0  0  0  0  0  0
   -4.2761   -0.5369   -2.1504 C   0  0  0  0  0  0  0  0  0  0  0  0
   -3.8541    0.5981   -1.4707 O   0  0  0  0  0  0  0  0  0  0  0  0
   -5.2670   -1.2738   -1.2744 C   0  0  0  0  0  0  0  0  0  0  0  0
   -4.3999   -2.2028   -0.5037 C   0  0  0  0  0  0  0  0  0  0  0  0
   -4.3052   -1.8001    0.9068 N   0  0  0  0  0  0  0  0  0  0  0  0
   -5.2563   -2.2420    1.7716 C   0  0  0  0  0  0  0  0  0  0  0  0
   -6.2060   -2.9813    1.3771 O   0  0  0  0  0  0  0  0  0  0  0  0
   -5.2284   -1.9110    3.0880 N   0  0  0  0  0  0  0  0  0  0  0  0
   -4.2310   -1.1253    3.5426 C   0  0  0  0  0  0  0  0  0  0  0  0
   -4.1847   -0.8062    4.7581 O   0  0  0  0  0  0  0  0  0  0  0  0
   -3.2478   -0.6571    2.6987 C   0  0  0  0  0  0  0  0  0  0  0  0
   -2.1379    0.2106    3.1798 C   0  0  0  0  0  0  0  0  0  0  0  0
   -3.3089   -1.0167    1.3553 C   0  0  0  0  0  0  0  0  0  0  0  0
   -4.1253    2.0328   -2.3237 P   0  0  0  0  0  0  0  0  0  0  0  0
   -5.3197    1.8066   -3.5054 O   0  0  0  0  0  0  0  0  0  0  0  0
   -2.8277    2.3459   -3.0730 O   0  0  0  0  0  0  0  0  0  0  0  0
   -4.4428    3.3175   -1.3100 O   0  0  0  0  0  0  0  0  0  0  0  0
   -4.2938    4.5210   -1.9480 C   0  0  0  0  0  0  0  0  0  0  0  0
   -4.4809    5.6993   -1.0037 C   0  0  0  0  0  0  0  0  0  0  0  0
   -5.7027    5.7281   -0.4183 O   0  0  0  0  0  0  0  0  0  0  0  0
   -3.4477    5.5337    0.0984 C   0  0  0  0  0  0  0  0  0  0  0  0
   -2.4042    4.7065   -0.3205 O   0  0  0  0  0  0  0  0  0  0  0  0
   -4.2866    4.8904    1.1605 C   0  0  0  0  0  0  0  0  0  0  0  0
   -5.6424    5.4878    0.9314 C   0  0  0  0  0  0  0  0  0  0  0  0
   -6.6048    4.4596    1.3339 N   0  0  0  0  0  0  0  0  0  0  0  0
   -7.6722    4.0944    0.5971 C   0  0  0  0  0  0  0  0  0  0  0  0
   -8.3649    3.1149    1.2391 N   0  0  0  0  0  0  0  0  0  0  0  0
   -7.7103    2.8646    2.4066 C   0  0  0  0  0  0  0  0  0  0  0  0
   -7.9729    1.9806    3.4224 C   0  0  0  0  0  0  0  0  0  0  0  0
   -9.1170    1.1508    3.2873 N   0  0  0  0  0  0  0  0  0  0  0  0
   -7.1428    1.9462    4.4775 N   0  0  0  0  0  0  0  0  0  0  0  0
   -6.0662    2.7736    4.5298 C   0  0  0  0  0  0  0  0  0  0  0  0
   -5.8069    3.6522    3.5165 N   0  0  0  0  0  0  0  0  0  0  0  0
   -6.6193    3.7101    2.4476 C   0  0  0  0  0  0  0  0  0  0  0  0
   -0.9017    5.4774   -0.2905 P   0  0  0  0  0  0  0  0  0  0  0  0
   -0.5511    6.0371    1.2496 O   0  0  0  0  0  0  0  0  0  0  0  0
   -0.8729    6.6442   -1.2535 O   0  0  0  0  0  0  0  0  0  0  0  0
    0.2340    4.3292   -0.8305 O   0  0  0  0  0  0  0  0  0  0  0  0
    0.8594    3.7626    0.2683 C   0  0  0  0  0  0  0  0  0  0  0  0
    1.7442    2.6460   -0.1780 C   0  0  0  0  0  0  0  0  0  0  0  0
    1.0470    1.6455   -0.8377 O   0  0  0  0  0  0  0  0  0  0  0  0
    2.7123    3.0941   -1.2345 C   0  0  0  0  0  0  0  0  0  0  0  0
    2.1572    3.8205   -2.2631 O   0  0  0  0  0  0  0  0  0  0  0  0
    3.2126    1.7266   -1.7348 C   0  0  0  0  0  0  0  0  0  0  0  0
    1.9645    0.8878   -1.5209 C   0  0  0  0  0  0  0  0  0  0  0  0
    1.4979    0.5379   -2.8631 N   0  0  0  0  0  0  0  0  0  0  0  0
    2.2469   -0.3611   -3.5422 C   0  0  0  0  0  0  0  0  0  0  0  0
    3.2782   -0.8573   -3.0357 O   0  0  0  0  0  0  0  0  0  0  0  0
    1.8788   -0.7359   -4.7957 N   0  0  0  0  0  0  0  0  0  0  0  0
    0.7750   -0.2196   -5.3667 C   0  0  0  0  0  0  0  0  0  0  0  0
    0.4464   -0.6528   -6.6806 N   0  0  0  0  0  0  0  0  0  0  0  0
    0.0324    0.6914   -4.6547 C   0  0  0  0  0  0  0  0  0  0  0  0
    0.3796    1.0906   -3.3840 C   0  0  0  0  0  0  0  0  0  0  0  0
    3.0994    5.1942   -2.5316 P   0  0  0  0  0  0  0  0  0  0  0  0
    2.8647    5.6909   -3.9530 O   0  0  0  0  0  0  0  0  0  0  0  0
    4.7259    4.7002   -2.3650 O   0  0  0  0  0  0  0  0  0  0  0  0
    2.7807    6.4400   -1.4389 O   0  0  0  0  0  0  0  0  0  0  0  0
    3.9669    6.8026   -0.7998 C   0  0  0  0  0  0  0  0  0  0  0  0
    3.8205    8.0423    0.0523 C   0  0  0  0  0  0  0  0  0  0  0  0
    5.0398    8.3134    0.6387 O   0  0  0  0  0  0  0  0  0  0  0  0
    3.4489    9.2517   -0.7796 C   0  0  0  0  0  0  0  0  0  0  0  0
    2.3880    9.9126   -0.2038 O   0  0  0  0  0  0  0  0  0  0  0  0
    4.7040   10.0965   -0.6951 C   0  0  0  0  0  0  0  0  0  0  0  0
    5.7256    9.0833   -0.2946 C   0  0  0  0  0  0  0  0  0  0  0  0
    6.9151    9.6906    0.2716 N   0  0  0  0  0  0  0  0  0  0  0  0
    7.3202   10.9272    0.0033 C   0  0  0  0  0  0  0  0  0  0  0  0
    8.4589   11.1549    0.7009 N   0  0  0  0  0  0  0  0  0  0  0  0
    8.7849   10.0694    1.4152 C   0  0  0  0  0  0  0  0  0  0  0  0
    9.8348    9.7851    2.2809 C   0  0  0  0  0  0  0  0  0  0  0  0
   10.7199   10.6497    2.5164 O   0  0  0  0  0  0  0  0  0  0  0  0
    9.8493    8.5587    2.8405 N   0  0  0  0  0  0  0  0  0  0  0  0
    8.8777    7.6416    2.5681 C   0  0  0  0  0  0  0  0  0  0  0  0
    8.9877    6.3824    3.2082 N   0  0  0  0  0  0  0  0  0  0  0  0
    7.8679    7.9307    1.7284 N   0  0  0  0  0  0  0  0  0  0  0  0
    7.7935    9.1420    1.1336 C   0  0  0  0  0  0  0  0  0  0  0  0
    5.4343   -6.2286    0.5033 H   0  0  0  0  0  0  0  0  0  0  0  0
    6.3850   -8.1327    0.2607 H   0  0  0  0  0  0  0  0  0  0  0  0
    5.5139   -8.3536   -1.3478 H   0  0  0  0  0  0  0  0  0  0  0  0
    4.8493  -10.0493    0.4082 H   0  0  0  0  0  0  0  0  0  0  0  0
    2.9451   -8.1103   -0.9982 H   0  0  0  0  0  0  0  0  0  0  0  0
    1.9190   -9.6049    1.4350 H   0  0  0  0  0  0  0  0  0  0  0  0
    1.3231   -8.0529    0.5958 H   0  0  0  0  0  0  0  0  0  0  0  0
    3.2073   -6.8839    1.2245 H   0  0  0  0  0  0  0  0  0  0  0  0
    0.4641   -7.4875    7.4086 H   0  0  0  0  0  0  0  0  0  0  0  0
    1.4126   -5.9135    7.3711 H   0  0  0  0  0  0  0  0  0  0  0  0
    1.3256   -9.2323    5.7131 H   0  0  0  0  0  0  0  0  0  0  0  0
    2.1947   -9.6689    3.4610 H   0  0  0  0  0  0  0  0  0  0  0  0
    1.6898   -7.1005   -2.8002 H   0  0  0  0  0  0  0  0  0  0  0  0
    0.7234   -7.8037   -4.1021 H   0  0  0  0  0  0  0  0  0  0  0  0
   -1.3768   -7.3223   -2.7365 H   0  0  0  0  0  0  0  0  0  0  0  0
   -1.2851   -4.8732   -2.5309 H   0  0  0  0  0  0  0  0  0  0  0  0
    0.7505   -3.8006   -1.9794 H   0  0  0  0  0  0  0  0  0  0  0  0
    1.7391   -5.0415   -2.7961 H   0  0  0  0  0  0  0  0  0  0  0  0
    1.7246   -6.0924   -0.7814 H   0  0  0  0  0  0  0  0  0  0  0  0
    2.0022   -3.3302   -0.0267 H   0  0  0  0  0  0  0  0  0  0  0  0
   -3.2326   -7.7522    2.2915 H   0  0  0  0  0  0  0  0  0  0  0  0
   -4.4036   -6.4818    2.7222 H   0  0  0  0  0  0  0  0  0  0  0  0
   -1.6464   -6.6070    0.6556 H   0  0  0  0  0  0  0  0  0  0  0  0
   -3.9317   -3.0020   -3.5699 H   0  0  0  0  0  0  0  0  0  0  0  0
   -3.1400   -1.6340   -4.3686 H   0  0  0  0  0  0  0  0  0  0  0  0
   -2.1543   -0.9395   -2.1468 H   0  0  0  0  0  0  0  0  0  0  0  0
   -4.7018   -0.3486   -3.1345 H   0  0  0  0  0  0  0  0  0  0  0  0
   -5.7412   -0.5368   -0.6080 H   0  0  0  0  0  0  0  0  0  0  0  0
   -5.9890   -1.8532   -1.9031 H   0  0  0  0  0  0  0  0  0  0  0  0
   -4.8573   -3.2356   -0.5348 H   0  0  0  0  0  0  0  0  0  0  0  0
   -5.9874   -2.2788    3.7167 H   0  0  0  0  0  0  0  0  0  0  0  0
   -1.1449   -0.2310    2.9306 H   0  0  0  0  0  0  0  0  0  0  0  0
   -2.2364    1.2270    2.7554 H   0  0  0  0  0  0  0  0  0  0  0  0
   -2.2418    0.3079    4.2770 H   0  0  0  0  0  0  0  0  0  0  0  0
   -2.5480   -0.6598    0.6772 H   0  0  0  0  0  0  0  0  0  0  0  0
   -3.2855    4.5575   -2.4109 H   0  0  0  0  0  0  0  0  0  0  0  0
   -5.0109    4.6553   -2.7957 H   0  0  0  0  0  0  0  0  0  0  0  0
   -4.2186    6.6344   -1.5233 H   0  0  0  0  0  0  0  0  0  0  0  0
   -3.0807    6.5221    0.4341 H   0  0  0  0  0  0  0  0  0  0  0  0
   -4.3512    3.8038    0.9429 H   0  0  0  0  0  0  0  0  0  0  0  0
   -3.9015    5.0825    2.1866 H   0  0  0  0  0  0  0  0  0  0  0  0
   -5.7894    6.4153    1.5314 H   0  0  0  0  0  0  0  0  0  0  0  0
   -7.9893    4.4707   -0.3534 H   0  0  0  0  0  0  0  0  0  0  0  0
   -9.0676    0.1071    3.2936 H   0  0  0  0  0  0  0  0  0  0  0  0
  -10.0786    1.5550    3.1719 H   0  0  0  0  0  0  0  0  0  0  0  0
   -5.4324    2.7032    5.4026 H   0  0  0  0  0  0  0  0  0  0  0  0
    0.1509    3.4352    1.0598 H   0  0  0  0  0  0  0  0  0  0  0  0
    1.4909    4.5788    0.7056 H   0  0  0  0  0  0  0  0  0  0  0  0
    2.3153    2.2427    0.6874 H   0  0  0  0  0  0  0  0  0  0  0  0
    3.5658    3.6268   -0.7726 H   0  0  0  0  0  0  0  0  0  0  0  0
    3.5346    1.7768   -2.7779 H   0  0  0  0  0  0  0  0  0  0  0  0
    3.9795    1.3687   -1.0442 H   0  0  0  0  0  0  0  0  0  0  0  0
    2.2091   -0.0795   -1.0282 H   0  0  0  0  0  0  0  0  0  0  0  0
    0.4022   -1.6576   -6.9645 H   0  0  0  0  0  0  0  0  0  0  0  0
    0.2346    0.0899   -7.4045 H   0  0  0  0  0  0  0  0  0  0  0  0
   -0.8569    1.1117   -5.1047 H   0  0  0  0  0  0  0  0  0  0  0  0
   -0.1514    1.7899   -2.7855 H   0  0  0  0  0  0  0  0  0  0  0  0
    4.2960    5.9835   -0.1269 H   0  0  0  0  0  0  0  0  0  0  0  0
    4.7458    6.9114   -1.5766 H   0  0  0  0  0  0  0  0  0  0  0  0
    3.0919    7.8790    0.8586 H   0  0  0  0  0  0  0  0  0  0  0  0
    3.2332    8.9408   -1.8242 H   0  0  0  0  0  0  0  0  0  0  0  0
    2.3707   10.8356   -0.6136 H   0  0  0  0  0  0  0  0  0  0  0  0
    4.5819   10.8174    0.1505 H   0  0  0  0  0  0  0  0  0  0  0  0
    4.9332   10.5970   -1.6581 H   0  0  0  0  0  0  0  0  0  0  0  0
    5.9704    8.4735   -1.1976 H   0  0  0  0  0  0  0  0  0  0  0  0
    6.8317   11.6217   -0.6499 H   0  0  0  0  0  0  0  0  0  0  0  0
    9.2883    5.5694    2.6158 H   0  0  0  0  0  0  0  0  0  0  0  0
    8.7712    6.2997    4.2329 H   0  0  0  0  0  0  0  0  0  0  0  0
    7.1161    7.2275    1.5151 H   0  0  0  0  0  0  0  0  0  0  0  0
  1  2  1  0
  1121  1  0
  2  3  1  0
  2122  1  0
  2123  1  0
  3  4  1  0
  3  5  1  0
  3124  1  0
  4  8  1  0
  5  7  1  0
  5  6  1  0
  5125  1  0
  6 17  1  0
  7  8  1  0
  7126  1  0
  7127  1  0
  8  9  1  0
  8128  1  0
  9 16  1  0
  9 10  1  0
 10 12  1  0
 10 11  2  0
 12 13  2  0
 13 15  1  0
 13 14  1  0
 14129  1  0
 14130  1  0
 15 16  2  0
 15131  1  0
 16132  1  0
 17 20  1  0
 17 19  2  0
 17 18  1  0
 20 21  1  0
 21 22  1  0
 21133  1  0
 21134  1  0
 22 24  1  0
 22 23  1  0
 22135  1  0
 23 27  1  0
 24 25  1  0
 24 26  1  0
 24136  1  0
 25 39  1  0
 26 27  1  0
 26137  1  0
 26138  1  0
 27 28  1  0
 27139  1  0
 28 38  1  0
 28 29  1  0
 29 30  2  0
 29140  1  0
 30 31  1  0
 31 32  1  0
 31 38  2  0
 32 33  2  0
 32 34  1  0
 34 35  2  0
 35 36  1  0
 35 37  1  0
 36141  1  0
 36142  1  0
 37 38  1  0
 37143  1  0
 39 41  2  0
 39 42  1  0
 39 40  1  0
 42 43  1  0
 43 44  1  0
 43144  1  0
 43145  1  0
 44 46  1  0
 44 45  1  0
 44146  1  0
 45 49  1  0
 46 48  1  0
 46 47  1  0
 46147  1  0
 47 59  1  0
 48 49  1  0
 48148  1  0
 48149  1  0
 49 50  1  0
 49150  1  0
 50 51  1  0
 50 58  1  0
 51 53  1  0
 51 52  2  0
 53 54  1  0
 53151  1  0
 54 55  2  0
 54 56  1  0
 56 57  1  0
 56 58  2  0
 57152  1  0
 57153  1  0
 57154  1  0
 58155  1  0
 59 61  2  0
 59 62  1  0
 59 60  1  0
 62 63  1  0
 63 64  1  0
 63156  1  0
 63157  1  0
 64 66  1  0
 64 65  1  0
 64158  1  0
 65 69  1  0
 66 68  1  0
 66 67  1  0
 66159  1  0
 67 80  1  0
 68 69  1  0
 68160  1  0
 68161  1  0
 69 70  1  0
 69162  1  0
 70 79  1  0
 70 71  1  0
 71 72  2  0
 71163  1  0
 72 73  1  0
 73 79  2  0
 73 74  1  0
 74 76  2  0
 74 75  1  0
 75164  1  0
 75165  1  0
 76 77  1  0
 77 78  2  0
 77166  1  0
 78 79  1  0
 80 83  1  0
 80 82  2  0
 80 81  1  0
 83 84  1  0
 84 85  1  0
 84167  1  0
 84168  1  0
 85 87  1  0
 85 86  1  0
 85169  1  0
 86 90  1  0
 87 88  1  0
 87 89  1  0
 87170  1  0
 88 99  1  0
 89 90  1  0
 89171  1  0
 89172  1  0
 90 91  1  0
 90173  1  0
 91 98  1  0
 91 92  1  0
 92 93  2  0
 92 94  1  0
 94 95  2  0
 95 97  1  0
 95 96  1  0
 96174  1  0
 96175  1  0
 97 98  2  0
 97176  1  0
 98177  1  0
 99100  2  0
 99101  1  0
 99102  1  0
102103  1  0
103104  1  0
103178  1  0
103179  1  0
104105  1  0
104106  1  0
104180  1  0
105109  1  0
106108  1  0
106107  1  0
106181  1  0
107182  1  0
108109  1  0
108183  1  0
108184  1  0
109110  1  0
109185  1  0
110111  1  0
110120  1  0
111112  2  0
111186  1  0
112113  1  0
113114  1  0
113120  2  0
114115  2  0
114116  1  0
116117  2  0
117118  1  0
117119  1  0
118187  1  0
118188  1  0
119120  1  0
119189  1  0
M  CHG  5  18  -1  40  -1  60  -1  81  -1 101  -1
M  END
$$$$
DNA (5'-D(*CP*GP*TP*AP*CP*G)-3')
     RDKit          3D

189203  0  0  0  0  0  0  0  0999 V2000
    4.8918   -1.1693   -5.8937 O   0  0  0  0  0  0  0  0  0  0  0  0
    4.1609   -1.7284   -4.8215 C   0  0  0  0  0  0  0  0  0  0  0  0
    3.8736   -3.1556   -5.2366 C   0  0  0  0  0  0  0  0  0  0  0  0
    3.1388   -3.0727   -6.4191 O   0  0  0  0  0  0  0  0  0  0  0  0
    2.9799   -3.8893   -4.2606 C   0  0  0  0  0  0  0  0  0  0  0  0
    1.9211   -3.0958   -3.8401 O   0  0  0  0  0  0  0  0  0  0  0  0
    2.3734   -4.9284   -5.2150 C   0  0  0  0  0  0  0  0  0  0  0  0
    2.3113   -4.1627   -6.5198 C   0  0  0  0  0  0  0  0  0  0  0  0
    0.9309   -3.6680   -6.6453 N   0  0  0  0  0  0  0  0  0  0  0  0
    0.6797   -2.3610   -6.9157 C   0  0  0  0  0  0  0  0  0  0  0  0
    1.7021   -1.6321   -7.0550 O   0  0  0  0  0  0  0  0  0  0  0  0
   -0.5760   -1.8939   -7.0235 N   0  0  0  0  0  0  0  0  0  0  0  0
   -1.6224   -2.7295   -6.8621 C   0  0  0  0  0  0  0  0  0  0  0  0
   -2.9817   -2.2805   -6.9644 N   0  0  0  0  0  0  0  0  0  0  0  0
   -1.4081   -4.0520   -6.5898 C   0  0  0  0  0  0  0  0  0  0  0  0
   -0.1101   -4.5329   -6.4785 C   0  0  0  0  0  0  0  0  0  0  0  0
    1.6887   -3.3356   -2.1651 P   0  0  0  0  0  0  0  0  0  0  0  0
    2.2666   -1.9787   -1.3265 O   0  0  0  0  0  0  0  0  0  0  0  0
    2.4829   -4.5318   -1.6914 O   0  0  0  0  0  0  0  0  0  0  0  0
    0.0251   -3.5286   -1.9416 O   0  0  0  0  0  0  0  0  0  0  0  0
   -0.4271   -2.9143   -0.7486 C   0  0  0  0  0  0  0  0  0  0  0  0
   -1.8859   -2.5441   -0.9225 C   0  0  0  0  0  0  0  0  0  0  0  0
   -2.5345   -3.7847   -1.1572 O   0  0  0  0  0  0  0  0  0  0  0  0
   -2.5446   -1.8702    0.2072 C   0  0  0  0  0  0  0  0  0  0  0  0
   -3.1036   -0.6191   -0.0837 O   0  0  0  0  0  0  0  0  0  0  0  0
   -3.7144   -2.8677    0.4851 C   0  0  0  0  0  0  0  0  0  0  0  0
   -2.9390   -4.1368    0.1026 C   0  0  0  0  0  0  0  0  0  0  0  0
   -3.7195   -5.3279    0.2069 N   0  0  0  0  0  0  0  0  0  0  0  0
   -4.2784   -5.7496    1.3695 C   0  0  0  0  0  0  0  0  0  0  0  0
   -4.9363   -6.8798    1.1318 N   0  0  0  0  0  0  0  0  0  0  0  0
   -4.8011   -7.1719   -0.1501 C   0  0  0  0  0  0  0  0  0  0  0  0
   -5.2855   -8.2367   -0.9042 C   0  0  0  0  0  0  0  0  0  0  0  0
   -5.9795   -9.0985   -0.3160 O   0  0  0  0  0  0  0  0  0  0  0  0
   -4.9746   -8.2610   -2.2005 N   0  0  0  0  0  0  0  0  0  0  0  0
   -4.2298   -7.3333   -2.8247 C   0  0  0  0  0  0  0  0  0  0  0  0
   -3.9374   -7.4225   -4.2167 N   0  0  0  0  0  0  0  0  0  0  0  0
   -3.7603   -6.2976   -2.0817 N   0  0  0  0  0  0  0  0  0  0  0  0
   -4.0330   -6.2068   -0.7698 C   0  0  0  0  0  0  0  0  0  0  0  0
   -3.2824    0.3629    1.2391 P   0  0  0  0  0  0  0  0  0  0  0  0
   -4.9708    0.6039    1.4494 O   0  0  0  0  0  0  0  0  0  0  0  0
   -2.7525   -0.3232    2.4625 O   0  0  0  0  0  0  0  0  0  0  0  0
   -2.6057    1.9252    1.0662 O   0  0  0  0  0  0  0  0  0  0  0  0
   -3.5493    2.8934    1.2804 C   0  0  0  0  0  0  0  0  0  0  0  0
   -3.1738    4.1486    1.9144 C   0  0  0  0  0  0  0  0  0  0  0  0
   -2.6095    4.0236    3.1915 O   0  0  0  0  0  0  0  0  0  0  0  0
   -2.2811    5.1224    1.2787 C   0  0  0  0  0  0  0  0  0  0  0  0
   -0.9503    4.7932    1.2295 O   0  0  0  0  0  0  0  0  0  0  0  0
   -2.3363    6.2112    2.4074 C   0  0  0  0  0  0  0  0  0  0  0  0
   -2.6756    5.3627    3.6041 C   0  0  0  0  0  0  0  0  0  0  0  0
   -1.7802    5.6808    4.6721 N   0  0  0  0  0  0  0  0  0  0  0  0
   -2.2045    6.5769    5.6084 C   0  0  0  0  0  0  0  0  0  0  0  0
   -3.3697    7.0925    5.4994 O   0  0  0  0  0  0  0  0  0  0  0  0
   -1.4612    6.9503    6.6445 N   0  0  0  0  0  0  0  0  0  0  0  0
   -0.2080    6.4627    6.8517 C   0  0  0  0  0  0  0  0  0  0  0  0
    0.4998    6.8090    7.8251 O   0  0  0  0  0  0  0  0  0  0  0  0
    0.2258    5.5467    5.8944 C   0  0  0  0  0  0  0  0  0  0  0  0
    1.6020    4.9996    6.1165 C   0  0  0  0  0  0  0  0  0  0  0  0
   -0.5497    5.1657    4.8259 C   0  0  0  0  0  0  0  0  0  0  0  0
   -0.1467    5.6371    0.0032 P   0  0  0  0  0  0  0  0  0  0  0  0
   -0.9547    5.5995   -1.4695 O   0  0  0  0  0  0  0  0  0  0  0  0
   -0.0466    7.1284    0.3729 O   0  0  0  0  0  0  0  0  0  0  0  0
    1.4477    5.0934   -0.1436 O   0  0  0  0  0  0  0  0  0  0  0  0
    2.3366    6.1252    0.0044 C   0  0  0  0  0  0  0  0  0  0  0  0
    3.7811    5.7558    0.0160 C   0  0  0  0  0  0  0  0  0  0  0  0
    4.1426    4.8827    1.0184 O   0  0  0  0  0  0  0  0  0  0  0  0
    4.2984    5.2090   -1.2954 C   0  0  0  0  0  0  0  0  0  0  0  0
    3.4620    4.2144   -1.7033 O   0  0  0  0  0  0  0  0  0  0  0  0
    5.5595    4.5087   -0.7570 C   0  0  0  0  0  0  0  0  0  0  0  0
    4.8984    3.8678    0.4532 C   0  0  0  0  0  0  0  0  0  0  0  0
    5.8289    3.2857    1.3780 N   0  0  0  0  0  0  0  0  0  0  0  0
    6.8439    2.4371    1.1514 C   0  0  0  0  0  0  0  0  0  0  0  0
    7.4711    2.1353    2.3097 N   0  0  0  0  0  0  0  0  0  0  0  0
    6.8532    2.7965    3.2898 C   0  0  0  0  0  0  0  0  0  0  0  0
    7.0552    2.8718    4.6610 C   0  0  0  0  0  0  0  0  0  0  0  0
    8.0974    2.1453    5.3096 N   0  0  0  0  0  0  0  0  0  0  0  0
    6.2348    3.6583    5.4226 N   0  0  0  0  0  0  0  0  0  0  0  0
    5.2216    4.3659    4.8356 C   0  0  0  0  0  0  0  0  0  0  0  0
    5.0191    4.2961    3.4941 N   0  0  0  0  0  0  0  0  0  0  0  0
    5.8172    3.5260    2.7237 C   0  0  0  0  0  0  0  0  0  0  0  0
    2.9133    4.3234   -3.2889 P   0  0  0  0  0  0  0  0  0  0  0  0
    4.0583    3.7616   -4.3738 O   0  0  0  0  0  0  0  0  0  0  0  0
    2.4624    5.6816   -3.6988 O   0  0  0  0  0  0  0  0  0  0  0  0
    1.5321    3.3016   -3.3476 O   0  0  0  0  0  0  0  0  0  0  0  0
    2.0002    1.9887   -3.3929 C   0  0  0  0  0  0  0  0  0  0  0  0
    0.9256    0.9953   -2.9984 C   0  0  0  0  0  0  0  0  0  0  0  0
   -0.1205    1.1281   -3.8721 O   0  0  0  0  0  0  0  0  0  0  0  0
    0.3674    1.2034   -1.6691 C   0  0  0  0  0  0  0  0  0  0  0  0
    1.0794    1.8046   -0.7213 O   0  0  0  0  0  0  0  0  0  0  0  0
   -0.9243    1.9177   -1.8660 C   0  0  0  0  0  0  0  0  0  0  0  0
   -0.9690    2.1023   -3.3625 C   0  0  0  0  0  0  0  0  0  0  0  0
   -2.3580    1.8813   -3.7718 N   0  0  0  0  0  0  0  0  0  0  0  0
   -3.3182    2.5802   -3.1339 C   0  0  0  0  0  0  0  0  0  0  0  0
   -3.0405    3.4023   -2.1993 O   0  0  0  0  0  0  0  0  0  0  0  0
   -4.6351    2.4369   -3.4614 N   0  0  0  0  0  0  0  0  0  0  0  0
   -5.0068    1.5814   -4.4415 C   0  0  0  0  0  0  0  0  0  0  0  0
   -6.3835    1.4660   -4.7441 N   0  0  0  0  0  0  0  0  0  0  0  0
   -4.0221    0.8586   -5.1006 C   0  0  0  0  0  0  0  0  0  0  0  0
   -2.6806    1.0180   -4.7529 C   0  0  0  0  0  0  0  0  0  0  0  0
    1.7538    1.2412    0.5873 P   0  0  0  0  0  0  0  0  0  0  0  0
    3.0305    0.4478    0.4624 O   0  0  0  0  0  0  0  0  0  0  0  0
    2.0306    2.5939    1.6195 O   0  0  0  0  0  0  0  0  0  0  0  0
    0.7128    0.2536    1.4904 O   0  0  0  0  0  0  0  0  0  0  0  0
    1.3345   -0.1694    2.6670 C   0  0  0  0  0  0  0  0  0  0  0  0
    0.4532   -1.0307    3.4956 C   0  0  0  0  0  0  0  0  0  0  0  0
    0.0246   -2.1912    2.9035 O   0  0  0  0  0  0  0  0  0  0  0  0
    1.1553   -1.4499    4.7788 C   0  0  0  0  0  0  0  0  0  0  0  0
    0.1824   -1.7967    5.7000 O   0  0  0  0  0  0  0  0  0  0  0  0
    1.8014   -2.7437    4.3218 C   0  0  0  0  0  0  0  0  0  0  0  0
    0.8433   -3.2353    3.2518 C   0  0  0  0  0  0  0  0  0  0  0  0
    0.1396   -4.3660    3.8141 N   0  0  0  0  0  0  0  0  0  0  0  0
    0.7089   -5.5935    3.9342 C   0  0  0  0  0  0  0  0  0  0  0  0
   -0.1618   -6.4393    4.4850 N   0  0  0  0  0  0  0  0  0  0  0  0
   -1.2831   -5.7723    4.7203 C   0  0  0  0  0  0  0  0  0  0  0  0
   -2.4780   -6.1863    5.2738 C   0  0  0  0  0  0  0  0  0  0  0  0
   -2.6228   -7.3842    5.6495 O   0  0  0  0  0  0  0  0  0  0  0  0
   -3.4465   -5.2597    5.3827 N   0  0  0  0  0  0  0  0  0  0  0  0
   -3.2481   -4.0043    4.9707 C   0  0  0  0  0  0  0  0  0  0  0  0
   -4.3197   -3.0853    5.1208 N   0  0  0  0  0  0  0  0  0  0  0  0
   -2.0825   -3.5744    4.4233 N   0  0  0  0  0  0  0  0  0  0  0  0
   -1.1047   -4.4676    4.3022 C   0  0  0  0  0  0  0  0  0  0  0  0
    4.2767   -0.8302   -6.6011 H   0  0  0  0  0  0  0  0  0  0  0  0
    4.7916   -1.6787   -3.8901 H   0  0  0  0  0  0  0  0  0  0  0  0
    3.2213   -1.1672   -4.6921 H   0  0  0  0  0  0  0  0  0  0  0  0
    4.8017   -3.7253   -5.3689 H   0  0  0  0  0  0  0  0  0  0  0  0
    3.5560   -4.3690   -3.4724 H   0  0  0  0  0  0  0  0  0  0  0  0
    3.0846   -5.7752   -5.2566 H   0  0  0  0  0  0  0  0  0  0  0  0
    1.4035   -5.2498   -4.8240 H   0  0  0  0  0  0  0  0  0  0  0  0
    2.5910   -4.8092   -7.3660 H   0  0  0  0  0  0  0  0  0  0  0  0
   -3.4627   -2.1196   -6.0332 H   0  0  0  0  0  0  0  0  0  0  0  0
   -3.4624   -2.1256   -7.8751 H   0  0  0  0  0  0  0  0  0  0  0  0
   -2.2427   -4.7226   -6.4594 H   0  0  0  0  0  0  0  0  0  0  0  0
    0.0263   -5.5724   -6.2679 H   0  0  0  0  0  0  0  0  0  0  0  0
   -0.2621   -3.6876    0.0416 H   0  0  0  0  0  0  0  0  0  0  0  0
    0.1892   -2.0294   -0.6002 H   0  0  0  0  0  0  0  0  0  0  0  0
   -1.9775   -1.9745   -1.8960 H   0  0  0  0  0  0  0  0  0  0  0  0
   -2.0513   -1.8126    1.1694 H   0  0  0  0  0  0  0  0  0  0  0  0
   -3.9820   -2.8762    1.5446 H   0  0  0  0  0  0  0  0  0  0  0  0
   -4.5226   -2.7236   -0.2293 H   0  0  0  0  0  0  0  0  0  0  0  0
   -2.0606   -4.1347    0.7876 H   0  0  0  0  0  0  0  0  0  0  0  0
   -4.1856   -5.2272    2.3371 H   0  0  0  0  0  0  0  0  0  0  0  0
   -2.9474   -7.5647   -4.5039 H   0  0  0  0  0  0  0  0  0  0  0  0
   -4.6742   -7.3532   -4.9621 H   0  0  0  0  0  0  0  0  0  0  0  0
   -3.1772   -5.5545   -2.5199 H   0  0  0  0  0  0  0  0  0  0  0  0
   -4.1443    3.1280    0.3571 H   0  0  0  0  0  0  0  0  0  0  0  0
   -4.3287    2.4014    1.9421 H   0  0  0  0  0  0  0  0  0  0  0  0
   -4.1499    4.7281    2.1519 H   0  0  0  0  0  0  0  0  0  0  0  0
   -2.6456    5.6257    0.3543 H   0  0  0  0  0  0  0  0  0  0  0  0
   -3.1968    6.8608    2.1409 H   0  0  0  0  0  0  0  0  0  0  0  0
   -1.3934    6.7518    2.4688 H   0  0  0  0  0  0  0  0  0  0  0  0
   -3.7270    5.5543    3.9202 H   0  0  0  0  0  0  0  0  0  0  0  0
   -1.7819    7.6384    7.3669 H   0  0  0  0  0  0  0  0  0  0  0  0
    1.7833    4.8633    7.2127 H   0  0  0  0  0  0  0  0  0  0  0  0
    1.7401    4.0470    5.6093 H   0  0  0  0  0  0  0  0  0  0  0  0
    2.3616    5.7602    5.8100 H   0  0  0  0  0  0  0  0  0  0  0  0
   -0.1832    4.4669    4.1156 H   0  0  0  0  0  0  0  0  0  0  0  0
    2.1597    6.8097   -0.8799 H   0  0  0  0  0  0  0  0  0  0  0  0
    2.1140    6.7854    0.8831 H   0  0  0  0  0  0  0  0  0  0  0  0
    4.3980    6.6889    0.2088 H   0  0  0  0  0  0  0  0  0  0  0  0
    4.5507    5.9761   -2.0341 H   0  0  0  0  0  0  0  0  0  0  0  0
    5.8621    3.6902   -1.4183 H   0  0  0  0  0  0  0  0  0  0  0  0
    6.3542    5.2034   -0.4912 H   0  0  0  0  0  0  0  0  0  0  0  0
    4.2204    3.0920    0.0047 H   0  0  0  0  0  0  0  0  0  0  0  0
    7.1446    2.0336    0.1856 H   0  0  0  0  0  0  0  0  0  0  0  0
    8.0115    1.7678    6.2785 H   0  0  0  0  0  0  0  0  0  0  0  0
    9.0261    1.9455    4.8337 H   0  0  0  0  0  0  0  0  0  0  0  0
    4.6088    4.9675    5.4804 H   0  0  0  0  0  0  0  0  0  0  0  0
    2.3018    1.8055   -4.4434 H   0  0  0  0  0  0  0  0  0  0  0  0
    2.8710    1.9670   -2.6817 H   0  0  0  0  0  0  0  0  0  0  0  0
    1.3155   -0.0615   -3.1584 H   0  0  0  0  0  0  0  0  0  0  0  0
    0.1203    0.1700   -1.2711 H   0  0  0  0  0  0  0  0  0  0  0  0
   -0.8812    2.9004   -1.3415 H   0  0  0  0  0  0  0  0  0  0  0  0
   -1.7844    1.3119   -1.4967 H   0  0  0  0  0  0  0  0  0  0  0  0
   -0.7445    3.1271   -3.6885 H   0  0  0  0  0  0  0  0  0  0  0  0
   -6.8811    0.5731   -4.9408 H   0  0  0  0  0  0  0  0  0  0  0  0
   -6.9673    2.3429   -4.7805 H   0  0  0  0  0  0  0  0  0  0  0  0
   -4.3220    0.1746   -5.8829 H   0  0  0  0  0  0  0  0  0  0  0  0
   -1.9002    0.4635   -5.2515 H   0  0  0  0  0  0  0  0  0  0  0  0
    1.5006    0.7799    3.2532 H   0  0  0  0  0  0  0  0  0  0  0  0
    2.3159   -0.6188    2.5181 H   0  0  0  0  0  0  0  0  0  0  0  0
   -0.4110   -0.4153    3.8315 H   0  0  0  0  0  0  0  0  0  0  0  0
    1.8883   -0.7213    5.1132 H   0  0  0  0  0  0  0  0  0  0  0  0
    0.5221   -1.7675    6.6346 H   0  0  0  0  0  0  0  0  0  0  0  0
    1.9034   -3.4619    5.1685 H   0  0  0  0  0  0  0  0  0  0  0  0
    2.7681   -2.5599    3.8347 H   0  0  0  0  0  0  0  0  0  0  0  0
    1.3882   -3.6266    2.3507 H   0  0  0  0  0  0  0  0  0  0  0  0
    1.7023   -5.8656    3.6395 H   0  0  0  0  0  0  0  0  0  0  0  0
   -4.3700   -2.2467    4.4996 H   0  0  0  0  0  0  0  0  0  0  0  0
   -5.0867   -3.1896    5.8272 H   0  0  0  0  0  0  0  0  0  0  0  0
   -1.9266   -2.5937    4.1024 H   0  0  0  0  0  0  0  0  0  0  0  0
  1  2  1  0
  1121  1  0
  2  3  1  0
  2122  1  0
  2123  1  0
  3  4  1  0
  3  5  1  0
  3124  1  0
  4  8  1  0
  5  7  1  0
  5  6  1  0
  5125  1  0
  6 17  1  0
  7  8  1  0
  7126  1  0
  7127  1  0
  8  9  1  0
  8128  1  0
  9 16  1  0
  9 10  1  0
 10 12  1  0
 10 11  2  0
 12 13  2  0
 13 15  1  0
 13 14  1  0
 14129  1  0
 14130  1  0
 15 16  2  0
 15131  1  0
 16132  1  0
 17 20  1  0
 17 19  2  0
 17 18  1  0
 20 21  1  0
 21 22  1  0
 21133  1  0
 21134  1  0
 22 24  1  0
 22 23  1  0
 22135  1  0
 23 27  1  0
 24 25  1  0
 24 26  1  0
 24136  1  0
 25 39  1  0
 26 27  1  0
 26137  1  0
 26138  1  0
 27 28  1  0
 27139  1  0
 28 38  1  0
 28 29  1  0
 29 30  2  0
 29140  1  0
 30 31  1  0
 31 32  1  0
 31 38  2  0
 32 33  2  0
 32 34  1  0
 34 35  2  0
 35 36  1  0
 35 37  1  0
 36141  1  0
 36142  1  0
 37 38  1  0
 37143  1  0
 39 41  2  0
 39 42  1  0
 39 40  1  0
 42 43  1  0
 43 44  1  0
 43144  1  0
 43145  1  0
 44 46  1  0
 44 45  1  0
 44146  1  0
 45 49  1  0
 46 48  1  0
 46 47  1  0
 46147  1  0
 47 59  1  0
 48 49  1  0
 48148  1  0
 48149  1  0
 49 50  1  0
 49150  1  0
 50 51  1  0
 50 58  1  0
 51 53  1  0
 51 52  2  0
 53 54  1  0
 53151  1  0
 54 55  2  0
 54 56  1  0
 56 57  1  0
 56 58  2  0
 57152  1  0
 57153  1  0
 57154  1  0
 58155  1  0
 59 61  2  0
 59 62  1  0
 59 60  1  0
 62 63  1  0
 63 64  1  0
 63156  1  0
 63157  1  0
 64 66  1  0
 64 65  1  0
 64158  1  0
 65 69  1  0
 66 68  1  0
 66 67  1  0
 66159  1  0
 67 80  1  0
 68 69  1  0
 68160  1  0
 68161  1  0
 69 70  1  0
 69162  1  0
 70 79  1  0
 70 71  1  0
 71 72  2  0
 71163  1  0
 72 73  1  0
 73 79  2  0
 73 74  1  0
 74 76  2  0
 74 75  1  0
 75164  1  0
 75165  1  0
 76 77  1  0
 77 78  2  0
 77166  1  0
 78 79  1  0
 80 83  1  0
 80 82  2  0
 80 81  1  0
 83 84  1  0
 84 85  1  0
 84167  1  0
 84168  1  0
 85 87  1  0
 85 86  1  0
 85169  1  0
 86 90  1  0
 87 88  1  0
 87 89  1  0
 87170  1  0
 88 99  1  0
 89 90  1  0
 89171  1  0
 89172  1  0
 90 91  1  0
 90173  1  0
 91 98  1  0
 91 92  1  0
 92 93  2  0
 92 94  1  0
 94 95  2  0
 95 97  1  0
 95 96  1  0
 96174  1  0
 96175  1  0
 97 98  2  0
 97176  1  0
 98177  1  0
 99100  2  0
 99101  1  0
 99102  1  0
102103  1  0
103104  1  0
103178  1  0
103179  1  0
104105  1  0
104106  1  0
104180  1  0
105109  1  0
106108  1  0
106107  1  0
106181  1  0
107182  1  0
108109  1  0
108183  1  0
108184  1  0
109110  1  0
109185  1  0
110111  1  0
110120  1  0
111112  2  0
111186  1  0
112113  1  0
113114  1  0
113120  2  0
114115  2  0
114116  1  0
116117  2  0
117118  1  0
117119  1  0
118187  1  0
118188  1  0
119120  1  0
119189  1  0
M  CHG  5  18  -1  40  -1  60  -1  81  -1 101  -1
M  END
$$$$
DNA (5'-D(*CP*GP*TP*AP*CP*G)-3')
     RDKit          3D

189203  0  0  0  0  0  0  0  0999 V2000
   -2.8445   -2.3794   -3.6849 O   0  0  0  0  0  0  0  0  0  0  0  0
   -2.4780   -1.1846   -3.0948 C   0  0  0  0  0  0  0  0  0  0  0  0
   -0.9788   -1.0758   -3.0018 C   0  0  0  0  0  0  0  0  0  0  0  0
   -0.4221   -1.1296   -4.2452 O   0  0  0  0  0  0  0  0  0  0  0  0
   -0.6625    0.3211   -2.4326 C   0  0  0  0  0  0  0  0  0  0  0  0
    0.6476    0.3613   -1.9709 O   0  0  0  0  0  0  0  0  0  0  0  0
   -0.7270    1.1188   -3.7145 C   0  0  0  0  0  0  0  0  0  0  0  0
   -0.2314    0.1441   -4.7433 C   0  0  0  0  0  0  0  0  0  0  0  0
   -0.8216    0.3234   -6.0490 N   0  0  0  0  0  0  0  0  0  0  0  0
   -1.0601    1.5204   -6.6102 C   0  0  0  0  0  0  0  0  0  0  0  0
   -0.7491    2.5724   -5.9625 O   0  0  0  0  0  0  0  0  0  0  0  0
   -1.6207    1.5990   -7.8422 N   0  0  0  0  0  0  0  0  0  0  0  0
   -1.9510    0.5026   -8.5313 C   0  0  0  0  0  0  0  0  0  0  0  0
   -2.5415    0.5190   -9.8250 N   0  0  0  0  0  0  0  0  0  0  0  0
   -1.7148   -0.7578   -7.9736 C   0  0  0  0  0  0  0  0  0  0  0  0
   -1.1452   -0.8216   -6.7220 C   0  0  0  0  0  0  0  0  0  0  0  0
    0.7921    0.6564   -0.3363 P   0  0  0  0  0  0  0  0  0  0  0  0
   -0.5953    1.4692    0.1735 O   0  0  0  0  0  0  0  0  0  0  0  0
    0.8839   -0.7190    0.3415 O   0  0  0  0  0  0  0  0  0  0  0  0
    2.1977    1.4733    0.0730 O   0  0  0  0  0  0  0  0  0  0  0  0
    2.2509    1.8350    1.3960 C   0  0  0  0  0  0  0  0  0  0  0  0
    3.5447    2.4650    1.8349 C   0  0  0  0  0  0  0  0  0  0  0  0
    3.4266    2.7715    3.1946 O   0  0  0  0  0  0  0  0  0  0  0  0
    3.8827    3.7260    1.0899 C   0  0  0  0  0  0  0  0  0  0  0  0
    5.2513    3.7918    0.7781 O   0  0  0  0  0  0  0  0  0  0  0  0
    3.7009    4.7468    2.2029 C   0  0  0  0  0  0  0  0  0  0  0  0
    4.2306    3.8920    3.3406 C   0  0  0  0  0  0  0  0  0  0  0  0
    4.1485    4.5140    4.6303 N   0  0  0  0  0  0  0  0  0  0  0  0
    3.0559    4.6446    5.3968 C   0  0  0  0  0  0  0  0  0  0  0  0
    3.3686    5.2928    6.5547 N   0  0  0  0  0  0  0  0  0  0  0  0
    4.6827    5.5790    6.5241 C   0  0  0  0  0  0  0  0  0  0  0  0
    5.5668    6.2160    7.3970 C   0  0  0  0  0  0  0  0  0  0  0  0
    5.1085    6.6543    8.4886 O   0  0  0  0  0  0  0  0  0  0  0  0
    6.8850    6.3548    7.0690 N   0  0  0  0  0  0  0  0  0  0  0  0
    7.3166    5.8699    5.8963 C   0  0  0  0  0  0  0  0  0  0  0  0
    8.6732    5.9712    5.4808 N   0  0  0  0  0  0  0  0  0  0  0  0
    6.4589    5.2541    5.0532 N   0  0  0  0  0  0  0  0  0  0  0  0
    5.1521    5.0891    5.3237 C   0  0  0  0  0  0  0  0  0  0  0  0
    5.5896    4.0591   -0.8234 P   0  0  0  0  0  0  0  0  0  0  0  0
    4.2510    4.5927   -1.7080 O   0  0  0  0  0  0  0  0  0  0  0  0
    6.6226    5.1586   -0.9225 O   0  0  0  0  0  0  0  0  0  0  0  0
    6.3007    2.6862   -1.5671 O   0  0  0  0  0  0  0  0  0  0  0  0
    5.6115    1.5526   -1.2154 C   0  0  0  0  0  0  0  0  0  0  0  0
    6.0649    0.2823   -1.8495 C   0  0  0  0  0  0  0  0  0  0  0  0
    5.9814    0.3173   -3.2224 O   0  0  0  0  0  0  0  0  0  0  0  0
    5.0906   -0.8036   -1.3803 C   0  0  0  0  0  0  0  0  0  0  0  0
    5.8006   -1.9301   -1.0547 O   0  0  0  0  0  0  0  0  0  0  0  0
    4.1880   -0.9269   -2.5606 C   0  0  0  0  0  0  0  0  0  0  0  0
    4.6251    0.1680   -3.4781 C   0  0  0  0  0  0  0  0  0  0  0  0
    4.3879   -0.0697   -4.8710 N   0  0  0  0  0  0  0  0  0  0  0  0
    4.9175   -1.1347   -5.5039 C   0  0  0  0  0  0  0  0  0  0  0  0
    5.6429   -1.9699   -4.9033 O   0  0  0  0  0  0  0  0  0  0  0  0
    4.7090   -1.3793   -6.8223 N   0  0  0  0  0  0  0  0  0  0  0  0
    3.9552   -0.5731   -7.5964 C   0  0  0  0  0  0  0  0  0  0  0  0
    3.7681   -0.8098   -8.8209 O   0  0  0  0  0  0  0  0  0  0  0  0
    3.4011    0.5306   -6.9599 C   0  0  0  0  0  0  0  0  0  0  0  0
    2.5669    1.4328   -7.7948 C   0  0  0  0  0  0  0  0  0  0  0  0
    3.6227    0.7604   -5.6301 C   0  0  0  0  0  0  0  0  0  0  0  0
    5.7313   -2.2902    0.5911 P   0  0  0  0  0  0  0  0  0  0  0  0
    7.1755   -3.1644    0.9244 O   0  0  0  0  0  0  0  0  0  0  0  0
    5.7966   -1.0542    1.4594 O   0  0  0  0  0  0  0  0  0  0  0  0
    4.4524   -3.3103    1.0019 O   0  0  0  0  0  0  0  0  0  0  0  0
    3.9177   -3.8216   -0.1502 C   0  0  0  0  0  0  0  0  0  0  0  0
    2.9631   -4.9700    0.0935 C   0  0  0  0  0  0  0  0  0  0  0  0
    2.5064   -5.3796   -1.1251 O   0  0  0  0  0  0  0  0  0  0  0  0
    1.7765   -4.6526    0.9066 C   0  0  0  0  0  0  0  0  0  0  0  0
    1.9340   -3.5354    1.7289 O   0  0  0  0  0  0  0  0  0  0  0  0
    0.6476   -4.5191   -0.0477 C   0  0  0  0  0  0  0  0  0  0  0  0
    1.2669   -4.8308   -1.3726 C   0  0  0  0  0  0  0  0  0  0  0  0
    0.4826   -5.8704   -2.0163 N   0  0  0  0  0  0  0  0  0  0  0  0
   -0.2844   -5.6963   -3.1040 C   0  0  0  0  0  0  0  0  0  0  0  0
   -0.8648   -6.8768   -3.4314 N   0  0  0  0  0  0  0  0  0  0  0  0
   -0.4436   -7.7988   -2.5218 C   0  0  0  0  0  0  0  0  0  0  0  0
   -0.7082   -9.1354   -2.3703 C   0  0  0  0  0  0  0  0  0  0  0  0
   -1.5829   -9.8259   -3.2763 N   0  0  0  0  0  0  0  0  0  0  0  0
   -0.1405   -9.8230   -1.3546 N   0  0  0  0  0  0  0  0  0  0  0  0
    0.6849   -9.2003   -0.4892 C   0  0  0  0  0  0  0  0  0  0  0  0
    0.9679   -7.8723   -0.6132 N   0  0  0  0  0  0  0  0  0  0  0  0
    0.4055   -7.1566   -1.6328 C   0  0  0  0  0  0  0  0  0  0  0  0
    1.8240   -3.9630    3.3610 P   0  0  0  0  0  0  0  0  0  0  0  0
    2.4858   -2.6974    4.2951 O   0  0  0  0  0  0  0  0  0  0  0  0
    2.6625   -5.2095    3.6307 O   0  0  0  0  0  0  0  0  0  0  0  0
    0.2686   -4.2755    3.8773 O   0  0  0  0  0  0  0  0  0  0  0  0
   -0.3175   -3.2581    4.6067 C   0  0  0  0  0  0  0  0  0  0  0  0
   -1.5789   -3.6625    5.2836 C   0  0  0  0  0  0  0  0  0  0  0  0
   -2.5833   -4.1041    4.4239 O   0  0  0  0  0  0  0  0  0  0  0  0
   -2.3042   -2.5274    5.9763 C   0  0  0  0  0  0  0  0  0  0  0  0
   -2.6987   -1.6278    5.0194 O   0  0  0  0  0  0  0  0  0  0  0  0
   -3.5626   -3.3174    6.4057 C   0  0  0  0  0  0  0  0  0  0  0  0
   -3.7318   -4.1821    5.1737 C   0  0  0  0  0  0  0  0  0  0  0  0
   -4.8867   -3.6329    4.4564 N   0  0  0  0  0  0  0  0  0  0  0  0
   -4.8223   -3.1891    3.2096 C   0  0  0  0  0  0  0  0  0  0  0  0
   -3.7329   -3.2345    2.5901 O   0  0  0  0  0  0  0  0  0  0  0  0
   -5.9009   -2.6846    2.5765 N   0  0  0  0  0  0  0  0  0  0  0  0
   -7.0921   -2.6183    3.2069 C   0  0  0  0  0  0  0  0  0  0  0  0
   -8.2593   -2.0910    2.5702 N   0  0  0  0  0  0  0  0  0  0  0  0
   -7.2095   -3.0703    4.5106 C   0  0  0  0  0  0  0  0  0  0  0  0
   -6.0609   -3.5845    5.1234 C   0  0  0  0  0  0  0  0  0  0  0  0
   -2.4062   -0.0138    5.4192 P   0  0  0  0  0  0  0  0  0  0  0  0
   -2.7771    0.3308    6.8272 O   0  0  0  0  0  0  0  0  0  0  0  0
   -0.7602    0.3073    5.2028 O   0  0  0  0  0  0  0  0  0  0  0  0
   -3.2895    1.0151    4.3703 O   0  0  0  0  0  0  0  0  0  0  0  0
   -2.4489    1.7255    3.5534 C   0  0  0  0  0  0  0  0  0  0  0  0
   -3.1035    2.3781    2.3625 C   0  0  0  0  0  0  0  0  0  0  0  0
   -4.0756    3.2808    2.6681 O   0  0  0  0  0  0  0  0  0  0  0  0
   -3.6761    1.3716    1.3977 C   0  0  0  0  0  0  0  0  0  0  0  0
   -3.3567    0.0674    1.7001 O   0  0  0  0  0  0  0  0  0  0  0  0
   -5.1756    1.6453    1.5923 C   0  0  0  0  0  0  0  0  0  0  0  0
   -5.1452    3.1424    1.7659 C   0  0  0  0  0  0  0  0  0  0  0  0
   -4.8313    3.8856    0.5885 N   0  0  0  0  0  0  0  0  0  0  0  0
   -3.7866    4.7191    0.3941 C   0  0  0  0  0  0  0  0  0  0  0  0
   -3.8093    5.2384   -0.8487 N   0  0  0  0  0  0  0  0  0  0  0  0
   -4.8763    4.7473   -1.4843 C   0  0  0  0  0  0  0  0  0  0  0  0
   -5.3219    4.9839   -2.7658 C   0  0  0  0  0  0  0  0  0  0  0  0
   -4.7166    5.7490   -3.5344 O   0  0  0  0  0  0  0  0  0  0  0  0
   -6.4479    4.3435   -3.1454 N   0  0  0  0  0  0  0  0  0  0  0  0
   -7.0922    3.5125   -2.2878 C   0  0  0  0  0  0  0  0  0  0  0  0
   -8.2763    2.8808   -2.7836 N   0  0  0  0  0  0  0  0  0  0  0  0
   -6.6296    3.3026   -1.0380 N   0  0  0  0  0  0  0  0  0  0  0  0
   -5.5110    3.9096   -0.5959 C   0  0  0  0  0  0  0  0  0  0  0  0
   -3.2787   -2.2451   -4.5711 H   0  0  0  0  0  0  0  0  0  0  0  0
   -2.8807   -0.3445   -3.6952 H   0  0  0  0  0  0  0  0  0  0  0  0
   -2.9149   -1.0600   -2.0800 H   0  0  0  0  0  0  0  0  0  0  0  0
   -0.5828   -1.8682   -2.3378 H   0  0  0  0  0  0  0  0  0  0  0  0
   -1.4183    0.5807   -1.6929 H   0  0  0  0  0  0  0  0  0  0  0  0
   -0.1065    2.0320   -3.6462 H   0  0  0  0  0  0  0  0  0  0  0  0
   -1.7915    1.3642   -3.9869 H   0  0  0  0  0  0  0  0  0  0  0  0
    0.8733    0.2635   -4.8645 H   0  0  0  0  0  0  0  0  0  0  0  0
   -2.0380    1.0551  -10.5904 H   0  0  0  0  0  0  0  0  0  0  0  0
   -3.4294    0.0398  -10.0696 H   0  0  0  0  0  0  0  0  0  0  0  0
   -1.9831   -1.6524   -8.5308 H   0  0  0  0  0  0  0  0  0  0  0  0
   -0.9620   -1.7765   -6.2952 H   0  0  0  0  0  0  0  0  0  0  0  0
    2.0752    0.9111    1.9906 H   0  0  0  0  0  0  0  0  0  0  0  0
    1.4034    2.5188    1.6808 H   0  0  0  0  0  0  0  0  0  0  0  0
    4.3219    1.6775    1.7795 H   0  0  0  0  0  0  0  0  0  0  0  0
    3.2437    3.8942    0.2193 H   0  0  0  0  0  0  0  0  0  0  0  0
    4.3065    5.6534    2.0477 H   0  0  0  0  0  0  0  0  0  0  0  0
    2.6233    4.9576    2.3490 H   0  0  0  0  0  0  0  0  0  0  0  0
    5.2600    3.5905    3.0642 H   0  0  0  0  0  0  0  0  0  0  0  0
    2.0500    4.2941    5.1570 H   0  0  0  0  0  0  0  0  0  0  0  0
    9.3502    5.1521    5.5429 H   0  0  0  0  0  0  0  0  0  0  0  0
    9.0440    6.8827    5.0937 H   0  0  0  0  0  0  0  0  0  0  0  0
    6.7818    4.8682    4.1278 H   0  0  0  0  0  0  0  0  0  0  0  0
    4.5358    1.7560   -1.3257 H   0  0  0  0  0  0  0  0  0  0  0  0
    5.7896    1.4238   -0.1060 H   0  0  0  0  0  0  0  0  0  0  0  0
    7.0886    0.0601   -1.5551 H   0  0  0  0  0  0  0  0  0  0  0  0
    4.5277   -0.4628   -0.4940 H   0  0  0  0  0  0  0  0  0  0  0  0
    4.2733   -1.9379   -3.0157 H   0  0  0  0  0  0  0  0  0  0  0  0
    3.1184   -0.7416   -2.2969 H   0  0  0  0  0  0  0  0  0  0  0  0
    4.0968    1.1053   -3.2015 H   0  0  0  0  0  0  0  0  0  0  0  0
    5.1284   -2.2148   -7.3062 H   0  0  0  0  0  0  0  0  0  0  0  0
    3.2389    1.8489   -8.5961 H   0  0  0  0  0  0  0  0  0  0  0  0
    1.7086    0.9229   -8.2776 H   0  0  0  0  0  0  0  0  0  0  0  0
    2.1953    2.3050   -7.2266 H   0  0  0  0  0  0  0  0  0  0  0  0
    3.1799    1.6344   -5.1416 H   0  0  0  0  0  0  0  0  0  0  0  0
    3.4281   -2.9876   -0.6886 H   0  0  0  0  0  0  0  0  0  0  0  0
    4.7419   -4.1834   -0.7978 H   0  0  0  0  0  0  0  0  0  0  0  0
    3.5172   -5.8215    0.5610 H   0  0  0  0  0  0  0  0  0  0  0  0
    1.5636   -5.5359    1.5851 H   0  0  0  0  0  0  0  0  0  0  0  0
   -0.1942   -5.2005    0.2074 H   0  0  0  0  0  0  0  0  0  0  0  0
    0.2395   -3.4864    0.0293 H   0  0  0  0  0  0  0  0  0  0  0  0
    1.2949   -3.9170   -2.0258 H   0  0  0  0  0  0  0  0  0  0  0  0
   -0.4707   -4.8002   -3.6934 H   0  0  0  0  0  0  0  0  0  0  0  0
   -1.3137  -10.7698   -3.6492 H   0  0  0  0  0  0  0  0  0  0  0  0
   -2.4939   -9.3903   -3.5708 H   0  0  0  0  0  0  0  0  0  0  0  0
    1.1123   -9.8053    0.3086 H   0  0  0  0  0  0  0  0  0  0  0  0
   -0.5312   -2.3381    4.0340 H   0  0  0  0  0  0  0  0  0  0  0  0
    0.4086   -2.9783    5.4069 H   0  0  0  0  0  0  0  0  0  0  0  0
   -1.3870   -4.4333    6.0877 H   0  0  0  0  0  0  0  0  0  0  0  0
   -1.7944   -2.1165    6.8461 H   0  0  0  0  0  0  0  0  0  0  0  0
   -4.4067   -2.6715    6.6352 H   0  0  0  0  0  0  0  0  0  0  0  0
   -3.2461   -3.9314    7.2669 H   0  0  0  0  0  0  0  0  0  0  0  0
   -3.9715   -5.2309    5.4127 H   0  0  0  0  0  0  0  0  0  0  0  0
   -8.4986   -1.0689    2.5795 H   0  0  0  0  0  0  0  0  0  0  0  0
   -8.8718   -2.7976    2.0869 H   0  0  0  0  0  0  0  0  0  0  0  0
   -8.1650   -3.0312    5.0572 H   0  0  0  0  0  0  0  0  0  0  0  0
   -6.1919   -3.9219    6.1329 H   0  0  0  0  0  0  0  0  0  0  0  0
   -1.8983    2.5384    4.0816 H   0  0  0  0  0  0  0  0  0  0  0  0
   -1.6506    1.0111    3.2228 H   0  0  0  0  0  0  0  0  0  0  0  0
   -2.2775    2.8842    1.8125 H   0  0  0  0  0  0  0  0  0  0  0  0
   -3.4638    1.6183    0.3369 H   0  0  0  0  0  0  0  0  0  0  0  0
   -3.2430   -0.4489    0.8550 H   0  0  0  0  0  0  0  0  0  0  0  0
   -5.4752    1.2130    2.5786 H   0  0  0  0  0  0  0  0  0  0  0  0
   -5.7620    1.2690    0.7617 H   0  0  0  0  0  0  0  0  0  0  0  0
   -6.0634    3.5154    2.2773 H   0  0  0  0  0  0  0  0  0  0  0  0
   -2.9927    4.9956    1.0977 H   0  0  0  0  0  0  0  0  0  0  0  0
   -9.2040    2.9674   -2.3506 H   0  0  0  0  0  0  0  0  0  0  0  0
   -8.1267    2.2983   -3.6616 H   0  0  0  0  0  0  0  0  0  0  0  0
   -7.1587    2.6717   -0.4235 H   0  0  0  0  0  0  0  0  0  0  0  0
  1  2  1  0
  1121  1  0
  2  3  1  0
  2122  1  0
  2123  1  0
  3  4  1  0
  3  5  1  0
  3124  1  0
  4  8  1  0
  5  7  1  0
  5  6  1  0
  5125  1  0
  6 17  1  0
  7  8  1  0
  7126  1  0
  7127  1  0
  8  9  1  0
  8128  1  0
  9 16  1  0
  9 10  1  0
 10 12  1  0
 10 11  2  0
 12 13  2  0
 13 15  1  0
 13 14  1  0
 14129  1  0
 14130  1  0
 15 16  2  0
 15131  1  0
 16132  1  0
 17 20  1  0
 17 19  2  0
 17 18  1  0
 20 21  1  0
 21 22  1  0
 21133  1  0
 21134  1  0
 22 24  1  0
 22 23  1  0
 22135  1  0
 23 27  1  0
 24 25  1  0
 24 26  1  0
 24136  1  0
 25 39  1  0
 26 27  1  0
 26137  1  0
 26138  1  0
 27 28  1  0
 27139  1  0
 28 38  1  0
 28 29  1  0
 29 30  2  0
 29140  1  0
 30 31  1  0
 31 32  1  0
 31 38  2  0
 32 33  2  0
 32 34  1  0
 34 35  2  0
 35 36  1  0
 35 37  1  0
 36141  1  0
 36142  1  0
 37 38  1  0
 37143  1  0
 39 41  2  0
 39 42  1  0
 39 40  1  0
 42 43  1  0
 43 44  1  0
 43144  1  0
 43145  1  0
 44 46  1  0
 44 45  1  0
 44146  1  0
 45 49  1  0
 46 48  1  0
 46 47  1  0
 46147  1  0
 47 59  1  0
 48 49  1  0
 48148  1  0
 48149  1  0
 49 50  1  0
 49150  1  0
 50 51  1  0
 50 58  1  0
 51 53  1  0
 51 52  2  0
 53 54  1  0
 53151  1  0
 54 55  2  0
 54 56  1  0
 56 57  1  0
 56 58  2  0
 57152  1  0
 57153  1  0
 57154  1  0
 58155  1  0
 59 61  2  0
 59 62  1  0
 59 60  1  0
 62 63  1  0
 63 64  1  0
 63156  1  0
 63157  1  0
 64 66  1  0
 64 65  1  0
 64158  1  0
 65 69  1  0
 66 68  1  0
 66 67  1  0
 66159  1  0
 67 80  1  0
 68 69  1  0
 68160  1  0
 68161  1  0
 69 70  1  0
 69162  1  0
 70 79  1  0
 70 71  1  0
 71 72  2  0
 71163  1  0
 72 73  1  0
 73 79  2  0
 73 74  1  0
 74 76  2  0
 74 75  1  0
 75164  1  0
 75165  1  0
 76 77  1  0
 77 78  2  0
 77166  1  0
 78 79  1  0
 80 83  1  0
 80 82  2  0
 80 81  1  0
 83 84  1  0
 84 85  1  0
 84167  1  0
 84168  1  0
 85 87  1  0
 85 86  1  0
 85169  1  0
 86 90  1  0
 87 88  1  0
 87 89  1  0
 87170  1  0
 88 99  1  0
 89 90  1  0
 89171  1  0
 89172  1  0
 90 91  1  0
 90173  1  0
 91 98  1  0
 91 92  1  0
 92 93  2  0
 92 94  1  0
 94 95  2  0
 95 97  1  0
 95 96  1  0
 96174  1  0
 96175  1  0
 97 98  2  0
 97176  1  0
 98177  1  0
 99100  2  0
 99101  1  0
 99102  1  0
102103  1  0
103104  1  0
103178  1  0
103179  1  0
104105  1  0
104106  1  0
104180  1  0
105109  1  0
106108  1  0
106107  1  0
106181  1  0
107182  1  0
108109  1  0
108183  1  0
108184  1  0
109110  1  0
109185  1  0
110111  1  0
110120  1  0
111112  2  0
111186  1  0
112113  1  0
113114  1  0
113120  2  0
114115  2  0
114116  1  0
116117  2  0
117118  1  0
117119  1  0
118187  1  0
118188  1  0
119120  1  0
119189  1  0
M  CHG  5  18  -1  40  -1  60  -1  81  -1 101  -1
M  END
$$$$
DNA (5'-D(*CP*GP*TP*AP*CP*G)-3')
     RDKit          3D

189203  0  0  0  0  0  0  0  0999 V2000
   -5.3529   -0.5274    6.2561 O   0  0  0  0  0  0  0  0  0  0  0  0
   -4.7857   -0.1836    5.0412 C   0  0  0  0  0  0  0  0  0  0  0  0
   -4.7468    1.3108    4.9113 C   0  0  0  0  0  0  0  0  0  0  0  0
   -3.9907    1.9096    5.9333 O   0  0  0  0  0  0  0  0  0  0  0  0
   -4.0937    1.8230    3.6768 C   0  0  0  0  0  0  0  0  0  0  0  0
   -2.8436    1.2846    3.4197 O   0  0  0  0  0  0  0  0  0  0  0  0
   -3.8333    3.2858    4.0607 C   0  0  0  0  0  0  0  0  0  0  0  0
   -4.0527    3.2635    5.5410 C   0  0  0  0  0  0  0  0  0  0  0  0
   -2.9943    3.9837    6.1809 N   0  0  0  0  0  0  0  0  0  0  0  0
   -2.7837    5.2628    5.7757 C   0  0  0  0  0  0  0  0  0  0  0  0
   -3.4947    5.7901    4.8695 O   0  0  0  0  0  0  0  0  0  0  0  0
   -1.8003    5.9960    6.3433 N   0  0  0  0  0  0  0  0  0  0  0  0
   -1.0099    5.4882    7.3140 C   0  0  0  0  0  0  0  0  0  0  0  0
    0.0243    6.2808    7.9010 N   0  0  0  0  0  0  0  0  0  0  0  0
   -1.2517    4.1915    7.6986 C   0  0  0  0  0  0  0  0  0  0  0  0
   -2.2499    3.4139    7.1384 C   0  0  0  0  0  0  0  0  0  0  0  0
   -2.7910    0.8692    1.7840 P   0  0  0  0  0  0  0  0  0  0  0  0
   -2.3744    2.2634    0.8819 O   0  0  0  0  0  0  0  0  0  0  0  0
   -4.2233    0.5566    1.3599 O   0  0  0  0  0  0  0  0  0  0  0  0
   -1.7540   -0.3908    1.4355 O   0  0  0  0  0  0  0  0  0  0  0  0
   -0.4338    0.0358    1.1584 C   0  0  0  0  0  0  0  0  0  0  0  0
    0.3701   -1.0490    0.5430 C   0  0  0  0  0  0  0  0  0  0  0  0
    0.4881   -2.1886    1.3437 O   0  0  0  0  0  0  0  0  0  0  0  0
    1.8148   -0.7330    0.2850 C   0  0  0  0  0  0  0  0  0  0  0  0
    2.5447   -0.4233    1.4336 O   0  0  0  0  0  0  0  0  0  0  0  0
    2.2489   -2.1455   -0.2100 C   0  0  0  0  0  0  0  0  0  0  0  0
    1.4392   -2.9825    0.7576 C   0  0  0  0  0  0  0  0  0  0  0  0
    2.3497   -3.5990    1.7234 N   0  0  0  0  0  0  0  0  0  0  0  0
    2.4138   -3.4482    3.0476 C   0  0  0  0  0  0  0  0  0  0  0  0
    3.4393   -4.2444    3.4523 N   0  0  0  0  0  0  0  0  0  0  0  0
    3.9992   -4.8720    2.4208 C   0  0  0  0  0  0  0  0  0  0  0  0
    5.0306   -5.7655    2.2304 C   0  0  0  0  0  0  0  0  0  0  0  0
    5.6941   -6.1698    3.2179 O   0  0  0  0  0  0  0  0  0  0  0  0
    5.3602   -6.2309    1.0006 N   0  0  0  0  0  0  0  0  0  0  0  0
    4.6715   -5.8204   -0.0772 C   0  0  0  0  0  0  0  0  0  0  0  0
    4.9614   -6.2662   -1.3995 N   0  0  0  0  0  0  0  0  0  0  0  0
    3.6578   -4.9472    0.0788 N   0  0  0  0  0  0  0  0  0  0  0  0
    3.3098   -4.4684    1.2939 C   0  0  0  0  0  0  0  0  0  0  0  0
    3.7235    0.7121    1.1360 P   0  0  0  0  0  0  0  0  0  0  0  0
    3.6874    1.1871   -0.5076 O   0  0  0  0  0  0  0  0  0  0  0  0
    5.1213    0.1723    1.4589 O   0  0  0  0  0  0  0  0  0  0  0  0
    3.5803    2.1345    2.0253 O   0  0  0  0  0  0  0  0  0  0  0  0
    2.3986    2.7916    1.8249 C   0  0  0  0  0  0  0  0  0  0  0  0
    2.4433    4.2318    2.3106 C   0  0  0  0  0  0  0  0  0  0  0  0
    2.7153    4.2443    3.6408 O   0  0  0  0  0  0  0  0  0  0  0  0
    1.0384    4.7716    2.1184 C   0  0  0  0  0  0  0  0  0  0  0  0
    0.4014    4.1457    1.0515 O   0  0  0  0  0  0  0  0  0  0  0  0
    0.4164    4.5395    3.4490 C   0  0  0  0  0  0  0  0  0  0  0  0
    1.5239    4.1283    4.3426 C   0  0  0  0  0  0  0  0  0  0  0  0
    1.4756    2.7809    4.8467 N   0  0  0  0  0  0  0  0  0  0  0  0
    2.6726    2.2160    5.1870 C   0  0  0  0  0  0  0  0  0  0  0  0
    3.7463    2.8772    5.0483 O   0  0  0  0  0  0  0  0  0  0  0  0
    2.7628    0.9671    5.6713 N   0  0  0  0  0  0  0  0  0  0  0  0
    1.6876    0.2015    5.8495 C   0  0  0  0  0  0  0  0  0  0  0  0
    1.8519   -0.9487    6.3037 O   0  0  0  0  0  0  0  0  0  0  0  0
    0.4584    0.7368    5.5171 C   0  0  0  0  0  0  0  0  0  0  0  0
   -0.7372   -0.0941    5.7067 C   0  0  0  0  0  0  0  0  0  0  0  0
    0.3976    2.0409    5.0153 C   0  0  0  0  0  0  0  0  0  0  0  0
    0.2577    5.1488   -0.3059 P   0  0  0  0  0  0  0  0  0  0  0  0
   -0.0528    6.7240    0.1754 O   0  0  0  0  0  0  0  0  0  0  0  0
   -0.9370    4.6569   -1.0836 O   0  0  0  0  0  0  0  0  0  0  0  0
    1.6210    5.0071   -1.2984 O   0  0  0  0  0  0  0  0  0  0  0  0
    1.2686    4.2994   -2.4424 C   0  0  0  0  0  0  0  0  0  0  0  0
    2.5589    3.8207   -3.0733 C   0  0  0  0  0  0  0  0  0  0  0  0
    3.3416    4.8985   -3.3834 O   0  0  0  0  0  0  0  0  0  0  0  0
    2.3808    3.0942   -4.3619 C   0  0  0  0  0  0  0  0  0  0  0  0
    1.1346    2.4886   -4.5174 O   0  0  0  0  0  0  0  0  0  0  0  0
    2.6524    4.1346   -5.3987 C   0  0  0  0  0  0  0  0  0  0  0  0
    2.8128    5.3901   -4.5684 C   0  0  0  0  0  0  0  0  0  0  0  0
    3.7511    6.3022   -5.2199 N   0  0  0  0  0  0  0  0  0  0  0  0
    3.9617    6.4816   -6.5367 C   0  0  0  0  0  0  0  0  0  0  0  0
    4.9297    7.4256   -6.6622 N   0  0  0  0  0  0  0  0  0  0  0  0
    5.3120    7.8232   -5.4533 C   0  0  0  0  0  0  0  0  0  0  0  0
    6.2301    8.7299   -4.9361 C   0  0  0  0  0  0  0  0  0  0  0  0
    7.0264    9.4862   -5.8458 N   0  0  0  0  0  0  0  0  0  0  0  0
    6.3892    8.9113   -3.6091 N   0  0  0  0  0  0  0  0  0  0  0  0
    5.6572    8.2136   -2.7271 C   0  0  0  0  0  0  0  0  0  0  0  0
    4.7654    7.3330   -3.2065 N   0  0  0  0  0  0  0  0  0  0  0  0
    4.5712    7.1173   -4.5371 C   0  0  0  0  0  0  0  0  0  0  0  0
    1.3653    0.8213   -4.7363 P   0  0  0  0  0  0  0  0  0  0  0  0
    1.6001    0.0321   -3.2523 O   0  0  0  0  0  0  0  0  0  0  0  0
    2.6328    0.6107   -5.5428 O   0  0  0  0  0  0  0  0  0  0  0  0
    0.0291    0.1427   -5.4710 O   0  0  0  0  0  0  0  0  0  0  0  0
   -0.8370   -0.5069   -4.5981 C   0  0  0  0  0  0  0  0  0  0  0  0
   -1.9639   -1.0918   -5.4122 C   0  0  0  0  0  0  0  0  0  0  0  0
   -1.5289   -1.9991   -6.3589 O   0  0  0  0  0  0  0  0  0  0  0  0
   -2.9958   -1.7867   -4.5455 C   0  0  0  0  0  0  0  0  0  0  0  0
   -2.3725   -2.3007   -3.4273 O   0  0  0  0  0  0  0  0  0  0  0  0
   -3.3337   -2.9582   -5.4517 C   0  0  0  0  0  0  0  0  0  0  0  0
   -1.9136   -3.2629   -5.9236 C   0  0  0  0  0  0  0  0  0  0  0  0
   -1.9110   -4.2473   -6.9486 N   0  0  0  0  0  0  0  0  0  0  0  0
   -0.7176   -4.6211   -7.4731 C   0  0  0  0  0  0  0  0  0  0  0  0
    0.3716   -4.1108   -7.0713 O   0  0  0  0  0  0  0  0  0  0  0  0
   -0.6121   -5.5480   -8.4448 N   0  0  0  0  0  0  0  0  0  0  0  0
   -1.6757   -6.1789   -8.9761 C   0  0  0  0  0  0  0  0  0  0  0  0
   -1.5475   -7.1587  -10.0053 N   0  0  0  0  0  0  0  0  0  0  0  0
   -2.9182   -5.8168   -8.4583 C   0  0  0  0  0  0  0  0  0  0  0  0
   -2.9989   -4.8564   -7.4544 C   0  0  0  0  0  0  0  0  0  0  0  0
   -3.0941   -1.8071   -1.9888 P   0  0  0  0  0  0  0  0  0  0  0  0
   -4.5897   -2.0651   -1.9675 O   0  0  0  0  0  0  0  0  0  0  0  0
   -2.7726   -0.1495   -1.7282 O   0  0  0  0  0  0  0  0  0  0  0  0
   -2.4352   -2.7288   -0.7321 O   0  0  0  0  0  0  0  0  0  0  0  0
   -3.3963   -3.0879    0.1742 C   0  0  0  0  0  0  0  0  0  0  0  0
   -2.8598   -3.8137    1.3784 C   0  0  0  0  0  0  0  0  0  0  0  0
   -2.2011   -5.0028    1.0762 O   0  0  0  0  0  0  0  0  0  0  0  0
   -3.9884   -4.3337    2.2584 C   0  0  0  0  0  0  0  0  0  0  0  0
   -4.4831   -3.2556    2.9809 O   0  0  0  0  0  0  0  0  0  0  0  0
   -3.2116   -5.2989    3.1379 C   0  0  0  0  0  0  0  0  0  0  0  0
   -1.8845   -5.4294    2.3877 C   0  0  0  0  0  0  0  0  0  0  0  0
   -1.4948   -6.8011    2.4587 N   0  0  0  0  0  0  0  0  0  0  0  0
   -1.7584   -7.6196    3.5203 C   0  0  0  0  0  0  0  0  0  0  0  0
   -1.2761   -8.8382    3.3021 N   0  0  0  0  0  0  0  0  0  0  0  0
   -0.6910   -8.8634    2.1154 C   0  0  0  0  0  0  0  0  0  0  0  0
   -0.0412   -9.8269    1.3925 C   0  0  0  0  0  0  0  0  0  0  0  0
    0.0702  -10.9858    1.8998 O   0  0  0  0  0  0  0  0  0  0  0  0
    0.4580   -9.5334    0.1812 N   0  0  0  0  0  0  0  0  0  0  0  0
    0.3126   -8.2840   -0.3119 C   0  0  0  0  0  0  0  0  0  0  0  0
    0.8326   -7.9415   -1.5936 N   0  0  0  0  0  0  0  0  0  0  0  0
   -0.3230   -7.3109    0.3757 N   0  0  0  0  0  0  0  0  0  0  0  0
   -0.8338   -7.5826    1.5959 C   0  0  0  0  0  0  0  0  0  0  0  0
   -5.4940    0.2833    6.8028 H   0  0  0  0  0  0  0  0  0  0  0  0
   -3.7988   -0.6359    4.8770 H   0  0  0  0  0  0  0  0  0  0  0  0
   -5.4271   -0.5482    4.1897 H   0  0  0  0  0  0  0  0  0  0  0  0
   -5.7922    1.7213    4.9160 H   0  0  0  0  0  0  0  0  0  0  0  0
   -4.7255    1.7818    2.7595 H   0  0  0  0  0  0  0  0  0  0  0  0
   -2.8193    3.6167    3.7780 H   0  0  0  0  0  0  0  0  0  0  0  0
   -4.5383    3.9464    3.5093 H   0  0  0  0  0  0  0  0  0  0  0  0
   -5.0510    3.7072    5.7457 H   0  0  0  0  0  0  0  0  0  0  0  0
    0.2327    7.2111    7.4837 H   0  0  0  0  0  0  0  0  0  0  0  0
    0.5257    5.8794    8.7309 H   0  0  0  0  0  0  0  0  0  0  0  0
   -0.6451    3.7276    8.4788 H   0  0  0  0  0  0  0  0  0  0  0  0
   -2.4266    2.3830    7.4580 H   0  0  0  0  0  0  0  0  0  0  0  0
   -0.5624    0.8383    0.4043 H   0  0  0  0  0  0  0  0  0  0  0  0
    0.0399    0.4636    2.0405 H   0  0  0  0  0  0  0  0  0  0  0  0
   -0.0672   -1.3715   -0.4296 H   0  0  0  0  0  0  0  0  0  0  0  0
    2.0141   -0.0405   -0.5322 H   0  0  0  0  0  0  0  0  0  0  0  0
    1.9224   -2.2580   -1.2628 H   0  0  0  0  0  0  0  0  0  0  0  0
    3.3231   -2.2824   -0.1571 H   0  0  0  0  0  0  0  0  0  0  0  0
    1.0098   -3.8246    0.1669 H   0  0  0  0  0  0  0  0  0  0  0  0
    1.7708   -2.8182    3.6432 H   0  0  0  0  0  0  0  0  0  0  0  0
    4.8981   -7.2774   -1.6864 H   0  0  0  0  0  0  0  0  0  0  0  0
    5.2490   -5.5621   -2.1129 H   0  0  0  0  0  0  0  0  0  0  0  0
    3.1230   -4.6317   -0.7781 H   0  0  0  0  0  0  0  0  0  0  0  0
    2.2149    2.8126    0.7224 H   0  0  0  0  0  0  0  0  0  0  0  0
    1.6085    2.2190    2.3486 H   0  0  0  0  0  0  0  0  0  0  0  0
    3.1753    4.8250    1.7263 H   0  0  0  0  0  0  0  0  0  0  0  0
    1.1705    5.8397    1.8665 H   0  0  0  0  0  0  0  0  0  0  0  0
   -0.4588    3.8823    3.4059 H   0  0  0  0  0  0  0  0  0  0  0  0
    0.0028    5.5293    3.8175 H   0  0  0  0  0  0  0  0  0  0  0  0
    1.5742    4.7927    5.2525 H   0  0  0  0  0  0  0  0  0  0  0  0
    3.7234    0.5913    5.9156 H   0  0  0  0  0  0  0  0  0  0  0  0
   -0.6161   -0.8093    6.5661 H   0  0  0  0  0  0  0  0  0  0  0  0
   -0.9147   -0.7474    4.8112 H   0  0  0  0  0  0  0  0  0  0  0  0
   -1.6674    0.4630    5.9175 H   0  0  0  0  0  0  0  0  0  0  0  0
   -0.5579    2.4234    4.7739 H   0  0  0  0  0  0  0  0  0  0  0  0
    0.7141    3.3975   -2.1132 H   0  0  0  0  0  0  0  0  0  0  0  0
    0.6549    4.8901   -3.1367 H   0  0  0  0  0  0  0  0  0  0  0  0
    3.0438    3.1181   -2.3541 H   0  0  0  0  0  0  0  0  0  0  0  0
    3.1615    2.2838   -4.4192 H   0  0  0  0  0  0  0  0  0  0  0  0
    3.6265    3.9362   -5.8932 H   0  0  0  0  0  0  0  0  0  0  0  0
    1.8699    4.2166   -6.1795 H   0  0  0  0  0  0  0  0  0  0  0  0
    1.8684    5.9546   -4.4303 H   0  0  0  0  0  0  0  0  0  0  0  0
    3.4438    5.9583   -7.3415 H   0  0  0  0  0  0  0  0  0  0  0  0
    8.0332    9.1697   -5.9684 H   0  0  0  0  0  0  0  0  0  0  0  0
    6.6708   10.3092   -6.3781 H   0  0  0  0  0  0  0  0  0  0  0  0
    5.7465    8.3232   -1.6488 H   0  0  0  0  0  0  0  0  0  0  0  0
   -1.3074    0.3223   -3.9926 H   0  0  0  0  0  0  0  0  0  0  0  0
   -0.3721   -1.2117   -3.9149 H   0  0  0  0  0  0  0  0  0  0  0  0
   -2.5106   -0.2845   -5.9377 H   0  0  0  0  0  0  0  0  0  0  0  0
   -3.8605   -1.1479   -4.3194 H   0  0  0  0  0  0  0  0  0  0  0  0
   -3.8712   -2.5805   -6.3450 H   0  0  0  0  0  0  0  0  0  0  0  0
   -3.7941   -3.7886   -4.9358 H   0  0  0  0  0  0  0  0  0  0  0  0
   -1.2730   -3.4974   -5.0477 H   0  0  0  0  0  0  0  0  0  0  0  0
   -1.5897   -6.9144  -11.0208 H   0  0  0  0  0  0  0  0  0  0  0  0
   -1.4056   -8.1666   -9.7742 H   0  0  0  0  0  0  0  0  0  0  0  0
   -3.8216   -6.2778   -8.8336 H   0  0  0  0  0  0  0  0  0  0  0  0
   -3.9533   -4.5596   -7.0380 H   0  0  0  0  0  0  0  0  0  0  0  0
   -4.1602   -3.7174   -0.3303 H   0  0  0  0  0  0  0  0  0  0  0  0
   -3.8439   -2.1439    0.5686 H   0  0  0  0  0  0  0  0  0  0  0  0
   -2.1698   -3.1983    1.9615 H   0  0  0  0  0  0  0  0  0  0  0  0
   -4.7503   -4.8090    1.6438 H   0  0  0  0  0  0  0  0  0  0  0  0
   -4.2405   -3.3359    3.9353 H   0  0  0  0  0  0  0  0  0  0  0  0
   -3.7046   -6.2852    3.2034 H   0  0  0  0  0  0  0  0  0  0  0  0
   -3.0433   -4.8216    4.1032 H   0  0  0  0  0  0  0  0  0  0  0  0
   -1.1134   -4.7570    2.8390 H   0  0  0  0  0  0  0  0  0  0  0  0
   -2.2928   -7.3432    4.4420 H   0  0  0  0  0  0  0  0  0  0  0  0
    1.8613   -7.8075   -1.7037 H   0  0  0  0  0  0  0  0  0  0  0  0
    0.1409   -7.8384   -2.3752 H   0  0  0  0  0  0  0  0  0  0  0  0
   -0.4195   -6.3679   -0.0221 H   0  0  0  0  0  0  0  0  0  0  0  0
  1  2  1  0
  1121  1  0
  2  3  1  0
  2122  1  0
  2123  1  0
  3  4  1  0
  3  5  1  0
  3124  1  0
  4  8  1  0
  5  7  1  0
  5  6  1  0
  5125  1  0
  6 17  1  0
  7  8  1  0
  7126  1  0
  7127  1  0
  8  9  1  0
  8128  1  0
  9 16  1  0
  9 10  1  0
 10 12  1  0
 10 11  2  0
 12 13  2  0
 13 15  1  0
 13 14  1  0
 14129  1  0
 14130  1  0
 15 16  2  0
 15131  1  0
 16132  1  0
 17 20  1  0
 17 19  2  0
 17 18  1  0
 20 21  1  0
 21 22  1  0
 21133  1  0
 21134  1  0
 22 24  1  0
 22 23  1  0
 22135  1  0
 23 27  1  0
 24 25  1  0
 24 26  1  0
 24136  1  0
 25 39  1  0
 26 27  1  0
 26137  1  0
 26138  1  0
 27 28  1  0
 27139  1  0
 28 38  1  0
 28 29  1  0
 29 30  2  0
 29140  1  0
 30 31  1  0
 31 32  1  0
 31 38  2  0
 32 33  2  0
 32 34  1  0
 34 35  2  0
 35 36  1  0
 35 37  1  0
 36141  1  0
 36142  1  0
 37 38  1  0
 37143  1  0
 39 41  2  0
 39 42  1  0
 39 40  1  0
 42 43  1  0
 43 44  1  0
 43144  1  0
 43145  1  0
 44 46  1  0
 44 45  1  0
 44146  1  0
 45 49  1  0
 46 48  1  0
 46 47  1  0
 46147  1  0
 47 59  1  0
 48 49  1  0
 48148  1  0
 48149  1  0
 49 50  1  0
 49150  1  0
 50 51  1  0
 50 58  1  0
 51 53  1  0
 51 52  2  0
 53 54  1  0
 53151  1  0
 54 55  2  0
 54 56  1  0
 56 57  1  0
 56 58  2  0
 57152  1  0
 57153  1  0
 57154  1  0
 58155  1  0
 59 61  2  0
 59 62  1  0
 59 60  1  0
 62 63  1  0
 63 64  1  0
 63156  1  0
 63157  1  0
 64 66  1  0
 64 65  1  0
 64158  1  0
 65 69  1  0
 66 68  1  0
 66 67  1  0
 66159  1  0
 67 80  1  0
 68 69  1  0
 68160  1  0
 68161  1  0
 69 70  1  0
 69162  1  0
 70 79  1  0
 70 71  1  0
 71 72  2  0
 71163  1  0
 72 73  1  0
 73 79  2  0
 73 74  1  0
 74 76  2  0
 74 75  1  0
 75164  1  0
 75165  1  0
 76 77  1  0
 77 78  2  0
 77166  1  0
 78 79  1  0
 80 83  1  0
 80 82  2  0
 80 81  1  0
 83 84  1  0
 84 85  1  0
 84167  1  0
 84168  1  0
 85 87  1  0
 85 86  1  0
 85169  1  0
 86 90  1  0
 87 88  1  0
 87 89  1  0
 87170  1  0
 88 99  1  0
 89 90  1  0
 89171  1  0
 89172  1  0
 90 91  1  0
 90173  1  0
 91 98  1  0
 91 92  1  0
 92 93  2  0
 92 94  1  0
 94 95  2  0
 95 97  1  0
 95 96  1  0
 96174  1  0
 96175  1  0
 97 98  2  0
 97176  1  0
 98177  1  0
 99100  2  0
 99101  1  0
 99102  1  0
102103  1  0
103104  1  0
103178  1  0
103179  1  0
104105  1  0
104106  1  0
104180  1  0
105109  1  0
106108  1  0
106107  1  0
106181  1  0
107182  1  0
108109  1  0
108183  1  0
108184  1  0
109110  1  0
109185  1  0
110111  1  0
110120  1  0
111112  2  0
111186  1  0
112113  1  0
113114  1  0
113120  2  0
114115  2  0
114116  1  0
116117  2  0
117118  1  0
117119  1  0
118187  1  0
118188  1  0
119120  1  0
119189  1  0
M  CHG  5  18  -1  40  -1  60  -1  81  -1 101  -1
M  END
$$$$
DNA (5'-D(*CP*GP*TP*AP*CP*G)-3')
     RDKit          3D

189203  0  0  0  0  0  0  0  0999 V2000
   -3.9094   -3.5072    7.1507 O   0  0  0  0  0  0  0  0  0  0  0  0
   -3.6637   -2.6957    6.0209 C   0  0  0  0  0  0  0  0  0  0  0  0
   -4.5766   -3.0730    4.8884 C   0  0  0  0  0  0  0  0  0  0  0  0
   -4.4132   -4.3939    4.4903 O   0  0  0  0  0  0  0  0  0  0  0  0
   -4.1699   -2.2964    3.6636 C   0  0  0  0  0  0  0  0  0  0  0  0
   -4.9529   -1.1724    3.4639 O   0  0  0  0  0  0  0  0  0  0  0  0
   -4.3499   -3.2482    2.4884 C   0  0  0  0  0  0  0  0  0  0  0  0
   -5.0130   -4.4239    3.2216 C   0  0  0  0  0  0  0  0  0  0  0  0
   -4.7368   -5.6139    2.4805 N   0  0  0  0  0  0  0  0  0  0  0  0
   -4.2332   -6.6885    3.1086 C   0  0  0  0  0  0  0  0  0  0  0  0
   -4.0176   -6.6207    4.3394 O   0  0  0  0  0  0  0  0  0  0  0  0
   -3.9839   -7.7874    2.3872 N   0  0  0  0  0  0  0  0  0  0  0  0
   -4.2352   -7.8122    1.0527 C   0  0  0  0  0  0  0  0  0  0  0  0
   -3.9347   -9.0283    0.3798 N   0  0  0  0  0  0  0  0  0  0  0  0
   -4.7537   -6.7164    0.3879 C   0  0  0  0  0  0  0  0  0  0  0  0
   -5.0027   -5.5952    1.1512 C   0  0  0  0  0  0  0  0  0  0  0  0
   -3.9525    0.1812    3.4365 P   0  0  0  0  0  0  0  0  0  0  0  0
   -3.8872    0.8988    4.9902 O   0  0  0  0  0  0  0  0  0  0  0  0
   -4.4763    1.2328    2.4562 O   0  0  0  0  0  0  0  0  0  0  0  0
   -2.3668   -0.2413    3.0588 O   0  0  0  0  0  0  0  0  0  0  0  0
   -2.1682   -0.3223    1.6822 C   0  0  0  0  0  0  0  0  0  0  0  0
   -0.6798   -0.2351    1.3485 C   0  0  0  0  0  0  0  0  0  0  0  0
   -0.2624    0.9872    1.8142 O   0  0  0  0  0  0  0  0  0  0  0  0
   -0.5868   -0.1572   -0.1562 C   0  0  0  0  0  0  0  0  0  0  0  0
   -1.5023   -1.0355   -0.7216 O   0  0  0  0  0  0  0  0  0  0  0  0
   -0.9578    1.2846   -0.3591 C   0  0  0  0  0  0  0  0  0  0  0  0
   -0.4758    1.9310    0.8347 C   0  0  0  0  0  0  0  0  0  0  0  0
   -1.2121    3.0644    1.3311 N   0  0  0  0  0  0  0  0  0  0  0  0
   -1.2554    3.3618    2.6651 C   0  0  0  0  0  0  0  0  0  0  0  0
   -2.0144    4.4597    2.8362 N   0  0  0  0  0  0  0  0  0  0  0  0
   -2.4658    4.8817    1.6342 C   0  0  0  0  0  0  0  0  0  0  0  0
   -3.2694    5.9471    1.2774 C   0  0  0  0  0  0  0  0  0  0  0  0
   -3.7435    6.7627    2.1222 O   0  0  0  0  0  0  0  0  0  0  0  0
   -3.5269    6.0724   -0.0542 N   0  0  0  0  0  0  0  0  0  0  0  0
   -3.0049    5.1820   -0.9394 C   0  0  0  0  0  0  0  0  0  0  0  0
   -3.3566    5.4311   -2.3151 N   0  0  0  0  0  0  0  0  0  0  0  0
   -2.2315    4.1598   -0.5779 N   0  0  0  0  0  0  0  0  0  0  0  0
   -1.9456    3.9892    0.7252 C   0  0  0  0  0  0  0  0  0  0  0  0
   -0.7165   -2.1693   -1.7291 P   0  0  0  0  0  0  0  0  0  0  0  0
    0.9478   -2.0921   -1.4523 O   0  0  0  0  0  0  0  0  0  0  0  0
   -1.2025   -3.5499   -1.3203 O   0  0  0  0  0  0  0  0  0  0  0  0
   -1.0955   -1.8461   -3.3672 O   0  0  0  0  0  0  0  0  0  0  0  0
   -2.3660   -1.2765   -3.3402 C   0  0  0  0  0  0  0  0  0  0  0  0
   -2.9189   -0.9245   -4.6816 C   0  0  0  0  0  0  0  0  0  0  0  0
   -4.1785   -0.3804   -4.4892 O   0  0  0  0  0  0  0  0  0  0  0  0
   -2.0447    0.1106   -5.3366 C   0  0  0  0  0  0  0  0  0  0  0  0
   -0.9106    0.3901   -4.5953 O   0  0  0  0  0  0  0  0  0  0  0  0
   -2.9689    1.3267   -5.3324 C   0  0  0  0  0  0  0  0  0  0  0  0
   -3.9165    0.9601   -4.2408 C   0  0  0  0  0  0  0  0  0  0  0  0
   -5.1406    1.7445   -4.2278 N   0  0  0  0  0  0  0  0  0  0  0  0
   -5.2791    2.9075   -4.8845 C   0  0  0  0  0  0  0  0  0  0  0  0
   -4.3284    3.3685   -5.5505 O   0  0  0  0  0  0  0  0  0  0  0  0
   -6.4598    3.5409   -4.7956 N   0  0  0  0  0  0  0  0  0  0  0  0
   -7.5035    3.0667   -4.0836 C   0  0  0  0  0  0  0  0  0  0  0  0
   -8.6091    3.6756   -4.0102 O   0  0  0  0  0  0  0  0  0  0  0  0
   -7.3735    1.8741   -3.4053 C   0  0  0  0  0  0  0  0  0  0  0  0
   -8.4769    1.2790   -2.5947 C   0  0  0  0  0  0  0  0  0  0  0  0
   -6.1629    1.2293   -3.4993 C   0  0  0  0  0  0  0  0  0  0  0  0
    0.5026    0.2452   -5.4750 P   0  0  0  0  0  0  0  0  0  0  0  0
    0.0703   -0.1246   -7.0783 O   0  0  0  0  0  0  0  0  0  0  0  0
    1.3530   -0.9073   -4.9971 O   0  0  0  0  0  0  0  0  0  0  0  0
    1.3818    1.6888   -5.4230 O   0  0  0  0  0  0  0  0  0  0  0  0
    1.9785    1.8970   -4.2037 C   0  0  0  0  0  0  0  0  0  0  0  0
    2.8775    3.1070   -4.2563 C   0  0  0  0  0  0  0  0  0  0  0  0
    2.1896    4.2621   -4.5911 O   0  0  0  0  0  0  0  0  0  0  0  0
    3.4810    3.4049   -2.8901 C   0  0  0  0  0  0  0  0  0  0  0  0
    3.7000    2.2876   -2.1240 O   0  0  0  0  0  0  0  0  0  0  0  0
    2.4360    4.3352   -2.3166 C   0  0  0  0  0  0  0  0  0  0  0  0
    1.5379    4.6321   -3.4543 C   0  0  0  0  0  0  0  0  0  0  0  0
    1.0731    6.0120   -3.4957 N   0  0  0  0  0  0  0  0  0  0  0  0
   -0.1754    6.3960   -3.8939 C   0  0  0  0  0  0  0  0  0  0  0  0
   -0.2715    7.7317   -3.8143 N   0  0  0  0  0  0  0  0  0  0  0  0
    0.8815    8.2448   -3.3734 C   0  0  0  0  0  0  0  0  0  0  0  0
    1.3417    9.5169   -3.1076 C   0  0  0  0  0  0  0  0  0  0  0  0
    0.4926   10.6413   -3.3051 N   0  0  0  0  0  0  0  0  0  0  0  0
    2.6071    9.6816   -2.6576 N   0  0  0  0  0  0  0  0  0  0  0  0
    3.4118    8.6222   -2.4697 C   0  0  0  0  0  0  0  0  0  0  0  0
    2.9464    7.3911   -2.7338 N   0  0  0  0  0  0  0  0  0  0  0  0
    1.7166    7.1435   -3.1782 C   0  0  0  0  0  0  0  0  0  0  0  0
    5.3536    2.2670   -1.7451 P   0  0  0  0  0  0  0  0  0  0  0  0
    5.4990    2.9723   -0.1949 O   0  0  0  0  0  0  0  0  0  0  0  0
    6.1642    3.0519   -2.7345 O   0  0  0  0  0  0  0  0  0  0  0  0
    5.9648    0.6953   -1.6325 O   0  0  0  0  0  0  0  0  0  0  0  0
    5.4825    0.0575   -0.5065 C   0  0  0  0  0  0  0  0  0  0  0  0
    6.0724   -1.3405   -0.3745 C   0  0  0  0  0  0  0  0  0  0  0  0
    5.7462   -2.0945   -1.4713 O   0  0  0  0  0  0  0  0  0  0  0  0
    5.4254   -2.0178    0.8383 C   0  0  0  0  0  0  0  0  0  0  0  0
    6.2926   -2.9175    1.4087 O   0  0  0  0  0  0  0  0  0  0  0  0
    4.2861   -2.7712    0.1981 C   0  0  0  0  0  0  0  0  0  0  0  0
    4.4525   -2.5613   -1.2926 C   0  0  0  0  0  0  0  0  0  0  0  0
    4.3592   -3.8276   -2.0037 N   0  0  0  0  0  0  0  0  0  0  0  0
    5.2185   -4.1517   -2.9896 C   0  0  0  0  0  0  0  0  0  0  0  0
    6.1286   -3.3295   -3.3017 O   0  0  0  0  0  0  0  0  0  0  0  0
    5.1560   -5.3181   -3.6654 N   0  0  0  0  0  0  0  0  0  0  0  0
    4.1839   -6.2226   -3.3484 C   0  0  0  0  0  0  0  0  0  0  0  0
    4.0785   -7.4723   -4.0351 N   0  0  0  0  0  0  0  0  0  0  0  0
    3.2900   -5.9049   -2.3352 C   0  0  0  0  0  0  0  0  0  0  0  0
    3.3761   -4.7025   -1.6582 C   0  0  0  0  0  0  0  0  0  0  0  0
    6.7217   -2.5910    2.9883 P   0  0  0  0  0  0  0  0  0  0  0  0
    6.8724   -1.0859    3.1690 O   0  0  0  0  0  0  0  0  0  0  0  0
    8.2806   -3.2483    3.2444 O   0  0  0  0  0  0  0  0  0  0  0  0
    5.7194   -3.2802    4.1371 O   0  0  0  0  0  0  0  0  0  0  0  0
    4.5253   -3.6652    3.5337 C   0  0  0  0  0  0  0  0  0  0  0  0
    3.5687   -4.2727    4.5398 C   0  0  0  0  0  0  0  0  0  0  0  0
    3.2797   -3.3386    5.5320 O   0  0  0  0  0  0  0  0  0  0  0  0
    2.2803   -4.5532    3.8205 C   0  0  0  0  0  0  0  0  0  0  0  0
    2.2369   -4.0175    2.5478 O   0  0  0  0  0  0  0  0  0  0  0  0
    1.2133   -3.8564    4.6489 C   0  0  0  0  0  0  0  0  0  0  0  0
    1.9612   -3.5851    5.9203 C   0  0  0  0  0  0  0  0  0  0  0  0
    1.4242   -2.4025    6.5278 N   0  0  0  0  0  0  0  0  0  0  0  0
    0.7478   -2.3199    7.6914 C   0  0  0  0  0  0  0  0  0  0  0  0
    0.4217   -1.0113    7.8936 N   0  0  0  0  0  0  0  0  0  0  0  0
    0.8964   -0.2943    6.8582 C   0  0  0  0  0  0  0  0  0  0  0  0
    0.8218    1.0608    6.6055 C   0  0  0  0  0  0  0  0  0  0  0  0
    0.2643    1.8835    7.3505 O   0  0  0  0  0  0  0  0  0  0  0  0
    1.3906    1.5177    5.4780 N   0  0  0  0  0  0  0  0  0  0  0  0
    2.0123    0.6744    4.6254 C   0  0  0  0  0  0  0  0  0  0  0  0
    2.6182    1.1772    3.4188 N   0  0  0  0  0  0  0  0  0  0  0  0
    2.0761   -0.6479    4.8875 N   0  0  0  0  0  0  0  0  0  0  0  0
    1.5168   -1.1640    6.0150 C   0  0  0  0  0  0  0  0  0  0  0  0
   -4.7462   -3.1359    7.5598 H   0  0  0  0  0  0  0  0  0  0  0  0
   -3.9016   -1.6608    6.3291 H   0  0  0  0  0  0  0  0  0  0  0  0
   -2.6100   -2.7221    5.7280 H   0  0  0  0  0  0  0  0  0  0  0  0
   -5.6300   -2.8858    5.1688 H   0  0  0  0  0  0  0  0  0  0  0  0
   -3.1249   -1.9948    3.7170 H   0  0  0  0  0  0  0  0  0  0  0  0
   -3.3937   -3.5733    2.0781 H   0  0  0  0  0  0  0  0  0  0  0  0
   -5.0264   -2.8305    1.7155 H   0  0  0  0  0  0  0  0  0  0  0  0
   -6.0699   -4.1713    3.3500 H   0  0  0  0  0  0  0  0  0  0  0  0
   -4.5028   -9.8656    0.6881 H   0  0  0  0  0  0  0  0  0  0  0  0
   -3.2045   -9.0766   -0.3617 H   0  0  0  0  0  0  0  0  0  0  0  0
   -4.9497   -6.7505   -0.6765 H   0  0  0  0  0  0  0  0  0  0  0  0
   -5.4066   -4.7317    0.6518 H   0  0  0  0  0  0  0  0  0  0  0  0
   -2.6018   -1.2664    1.3311 H   0  0  0  0  0  0  0  0  0  0  0  0
   -2.7558    0.4884    1.2213 H   0  0  0  0  0  0  0  0  0  0  0  0
   -0.1251   -1.0806    1.7663 H   0  0  0  0  0  0  0  0  0  0  0  0
    0.4540   -0.3684   -0.4886 H   0  0  0  0  0  0  0  0  0  0  0  0
   -0.4519    1.5686   -1.3169 H   0  0  0  0  0  0  0  0  0  0  0  0
   -2.0691    1.2546   -0.4990 H   0  0  0  0  0  0  0  0  0  0  0  0
    0.5569    2.3473    0.6111 H   0  0  0  0  0  0  0  0  0  0  0  0
   -0.7709    2.8223    3.4672 H   0  0  0  0  0  0  0  0  0  0  0  0
   -4.1361    4.8206   -2.6971 H   0  0  0  0  0  0  0  0  0  0  0  0
   -2.8772    6.1590   -2.8879 H   0  0  0  0  0  0  0  0  0  0  0  0
   -1.8542    3.5045   -1.2892 H   0  0  0  0  0  0  0  0  0  0  0  0
   -3.0295   -2.0117   -2.7964 H   0  0  0  0  0  0  0  0  0  0  0  0
   -2.2912   -0.4129   -2.6511 H   0  0  0  0  0  0  0  0  0  0  0  0
   -2.9660   -1.8652   -5.2878 H   0  0  0  0  0  0  0  0  0  0  0  0
   -1.7999   -0.1771   -6.3868 H   0  0  0  0  0  0  0  0  0  0  0  0
   -2.3493    2.2078   -5.1262 H   0  0  0  0  0  0  0  0  0  0  0  0
   -3.4441    1.3579   -6.3340 H   0  0  0  0  0  0  0  0  0  0  0  0
   -3.4026    1.1462   -3.2728 H   0  0  0  0  0  0  0  0  0  0  0  0
   -6.6293    4.4553   -5.2867 H   0  0  0  0  0  0  0  0  0  0  0  0
   -8.8950    0.3792   -3.0864 H   0  0  0  0  0  0  0  0  0  0  0  0
   -8.0039    0.9069   -1.6424 H   0  0  0  0  0  0  0  0  0  0  0  0
   -9.2204    2.0517   -2.3771 H   0  0  0  0  0  0  0  0  0  0  0  0
   -6.0586    0.2813   -2.9615 H   0  0  0  0  0  0  0  0  0  0  0  0
    2.5737    1.0003   -3.9140 H   0  0  0  0  0  0  0  0  0  0  0  0
    1.2532    2.0599   -3.3727 H   0  0  0  0  0  0  0  0  0  0  0  0
    3.6860    2.9812   -5.0078 H   0  0  0  0  0  0  0  0  0  0  0  0
    4.4568    3.9267   -3.0382 H   0  0  0  0  0  0  0  0  0  0  0  0
    2.9953    5.1921   -1.8939 H   0  0  0  0  0  0  0  0  0  0  0  0
    1.8929    3.8343   -1.4567 H   0  0  0  0  0  0  0  0  0  0  0  0
    0.6176    3.9853   -3.3130 H   0  0  0  0  0  0  0  0  0  0  0  0
   -0.9298    5.6891   -4.2138 H   0  0  0  0  0  0  0  0  0  0  0  0
   -0.3361   10.7980   -2.6985 H   0  0  0  0  0  0  0  0  0  0  0  0
    0.7538   11.2848   -4.0854 H   0  0  0  0  0  0  0  0  0  0  0  0
    4.4353    8.7006   -2.1102 H   0  0  0  0  0  0  0  0  0  0  0  0
    5.8266    0.6341    0.3845 H   0  0  0  0  0  0  0  0  0  0  0  0
    4.3891    0.0394   -0.4907 H   0  0  0  0  0  0  0  0  0  0  0  0
    7.1516   -1.3181   -0.2119 H   0  0  0  0  0  0  0  0  0  0  0  0
    5.0858   -1.2295    1.5439 H   0  0  0  0  0  0  0  0  0  0  0  0
    4.2920   -3.8538    0.4438 H   0  0  0  0  0  0  0  0  0  0  0  0
    3.3335   -2.2861    0.4916 H   0  0  0  0  0  0  0  0  0  0  0  0
    3.6743   -1.9016   -1.7286 H   0  0  0  0  0  0  0  0  0  0  0  0
    3.6918   -8.2637   -3.4770 H   0  0  0  0  0  0  0  0  0  0  0  0
    4.3733   -7.5721   -5.0312 H   0  0  0  0  0  0  0  0  0  0  0  0
    2.5401   -6.6312   -2.1096 H   0  0  0  0  0  0  0  0  0  0  0  0
    2.6738   -4.4454   -0.8577 H   0  0  0  0  0  0  0  0  0  0  0  0
    4.0745   -2.7681    3.0866 H   0  0  0  0  0  0  0  0  0  0  0  0
    4.7431   -4.3874    2.7293 H   0  0  0  0  0  0  0  0  0  0  0  0
    4.0340   -5.1803    4.9676 H   0  0  0  0  0  0  0  0  0  0  0  0
    2.0847   -5.6490    3.7835 H   0  0  0  0  0  0  0  0  0  0  0  0
    1.4241   -3.5250    2.3480 H   0  0  0  0  0  0  0  0  0  0  0  0
    0.3325   -4.5098    4.8135 H   0  0  0  0  0  0  0  0  0  0  0  0
    0.8479   -2.9398    4.1385 H   0  0  0  0  0  0  0  0  0  0  0  0
    1.9134   -4.4705    6.5655 H   0  0  0  0  0  0  0  0  0  0  0  0
    0.5002   -3.1301    8.3548 H   0  0  0  0  0  0  0  0  0  0  0  0
    2.5748    0.6142    2.5561 H   0  0  0  0  0  0  0  0  0  0  0  0
    3.0946    2.1084    3.4329 H   0  0  0  0  0  0  0  0  0  0  0  0
    2.5648   -1.2655    4.2052 H   0  0  0  0  0  0  0  0  0  0  0  0
  1  2  1  0
  1121  1  0
  2  3  1  0
  2122  1  0
  2123  1  0
  3  4  1  0
  3  5  1  0
  3124  1  0
  4  8  1  0
  5  7  1  0
  5  6  1  0
  5125  1  0
  6 17  1  0
  7  8  1  0
  7126  1  0
  7127  1  0
  8  9  1  0
  8128  1  0
  9 16  1  0
  9 10  1  0
 10 12  1  0
 10 11  2  0
 12 13  2  0
 13 15  1  0
 13 14  1  0
 14129  1  0
 14130  1  0
 15 16  2  0
 15131  1  0
 16132  1  0
 17 20  1  0
 17 19  2  0
 17 18  1  0
 20 21  1  0
 21 22  1  0
 21133  1  0
 21134  1  0
 22 24  1  0
 22 23  1  0
 22135  1  0
 23 27  1  0
 24 25  1  0
 24 26  1  0
 24136  1  0
 25 39  1  0
 26 27  1  0
 26137  1  0
 26138  1  0
 27 28  1  0
 27139  1  0
 28 38  1  0
 28 29  1  0
 29 30  2  0
 29140  1  0
 30 31  1  0
 31 32  1  0
 31 38  2  0
 32 33  2  0
 32 34  1  0
 34 35  2  0
 35 36  1  0
 35 37  1  0
 36141  1  0
 36142  1  0
 37 38  1  0
 37143  1  0
 39 41  2  0
 39 42  1  0
 39 40  1  0
 42 43  1  0
 43 44  1  0
 43144  1  0
 43145  1  0
 44 46  1  0
 44 45  1  0
 44146  1  0
 45 49  1  0
 46 48  1  0
 46 47  1  0
 46147  1  0
 47 59  1  0
 48 49  1  0
 48148  1  0
 48149  1  0
 49 50  1  0
 49150  1  0
 50 51  1  0
 50 58  1  0
 51 53  1  0
 51 52  2  0
 53 54  1  0
 53151  1  0
 54 55  2  0
 54 56  1  0
 56 57  1  0
 56 58  2  0
 57152  1  0
 57153  1  0
 57154  1  0
 58155  1  0
 59 61  2  0
 59 62  1  0
 59 60  1  0
 62 63  1  0
 63 64  1  0
 63156  1  0
 63157  1  0
 64 66  1  0
 64 65  1  0
 64158  1  0
 65 69  1  0
 66 68  1  0
 66 67  1  0
 66159  1  0
 67 80  1  0
 68 69  1  0
 68160  1  0
 68161  1  0
 69 70  1  0
 69162  1  0
 70 79  1  0
 70 71  1  0
 71 72  2  0
 71163  1  0
 72 73  1  0
 73 79  2  0
 73 74  1  0
 74 76  2  0
 74 75  1  0
 75164  1  0
 75165  1  0
 76 77  1  0
 77 78  2  0
 77166  1  0
 78 79  1  0
 80 83  1  0
 80 82  2  0
 80 81  1  0
 83 84  1  0
 84 85  1  0
 84167  1  0
 84168  1  0
 85 87  1  0
 85 86  1  0
 85169  1  0
 86 90  1  0
 87 88  1  0
 87 89  1  0
 87170  1  0
 88 99  1  0
 89 90  1  0
 89171  1  0
 89172  1  0
 90 91  1  0
 90173  1  0
 91 98  1  0
 91 92  1  0
 92 93  2  0
 92 94  1  0
 94 95  2  0
 95 97  1  0
 95 96  1  0
 96174  1  0
 96175  1  0
 97 98  2  0
 97176  1  0
 98177  1  0
 99100  2  0
 99101  1  0
 99102  1  0
102103  1  0
103104  1  0
103178  1  0
103179  1  0
104105  1  0
104106  1  0
104180  1  0
105109  1  0
106108  1  0
106107  1  0
106181  1  0
107182  1  0
108109  1  0
108183  1  0
108184  1  0
109110  1  0
109185  1  0
110111  1  0
110120  1  0
111112  2  0
111186  1  0
112113  1  0
113114  1  0
113120  2  0
114115  2  0
114116  1  0
116117  2  0
117118  1  0
117119  1  0
118187  1  0
118188  1  0
119120  1  0
119189  1  0
M  CHG  5  18  -1  40  -1  60  -1  81  -1 101  -1
M  END
$$$$
DNA (5'-D(*CP*GP*TP*AP*CP*G)-3')
     RDKit          3D

189203  0  0  0  0  0  0  0  0999 V2000
    6.6035   -3.2127    2.7005 O   0  0  0  0  0  0  0  0  0  0  0  0
    5.6668   -2.5844    1.8796 C   0  0  0  0  0  0  0  0  0  0  0  0
    6.3022   -2.2932    0.5544 C   0  0  0  0  0  0  0  0  0  0  0  0
    6.7249   -3.4626   -0.0546 O   0  0  0  0  0  0  0  0  0  0  0  0
    5.3611   -1.6870   -0.4532 C   0  0  0  0  0  0  0  0  0  0  0  0
    6.0848   -1.3240   -1.5840 O   0  0  0  0  0  0  0  0  0  0  0  0
    4.5963   -2.9615   -0.8611 C   0  0  0  0  0  0  0  0  0  0  0  0
    5.7200   -3.9595   -0.8444 C   0  0  0  0  0  0  0  0  0  0  0  0
    5.2864   -5.2899   -0.5248 N   0  0  0  0  0  0  0  0  0  0  0  0
    4.0427   -5.7119   -0.8313 C   0  0  0  0  0  0  0  0  0  0  0  0
    3.2367   -4.9367   -1.4056 O   0  0  0  0  0  0  0  0  0  0  0  0
    3.6409   -6.9577   -0.5329 N   0  0  0  0  0  0  0  0  0  0  0  0
    4.4751   -7.8183    0.0825 C   0  0  0  0  0  0  0  0  0  0  0  0
    4.0233   -9.1327    0.3830 N   0  0  0  0  0  0  0  0  0  0  0  0
    5.7500   -7.4038    0.4033 C   0  0  0  0  0  0  0  0  0  0  0  0
    6.1537   -6.1192    0.0916 C   0  0  0  0  0  0  0  0  0  0  0  0
    5.6826    0.1754   -2.1918 P   0  0  0  0  0  0  0  0  0  0  0  0
    7.1147    1.0485   -2.4768 O   0  0  0  0  0  0  0  0  0  0  0  0
    4.9218    0.0884   -3.4947 O   0  0  0  0  0  0  0  0  0  0  0  0
    4.7343    1.0013   -1.0634 O   0  0  0  0  0  0  0  0  0  0  0  0
    4.2993    2.2201   -1.5434 C   0  0  0  0  0  0  0  0  0  0  0  0
    3.5461    2.9628   -0.4665 C   0  0  0  0  0  0  0  0  0  0  0  0
    3.0941    4.2026   -0.9045 O   0  0  0  0  0  0  0  0  0  0  0  0
    2.3760    2.2303    0.0920 C   0  0  0  0  0  0  0  0  0  0  0  0
    2.6749    1.2614    1.0343 O   0  0  0  0  0  0  0  0  0  0  0  0
    1.6359    3.4119    0.7470 C   0  0  0  0  0  0  0  0  0  0  0  0
    1.8640    4.4512   -0.3313 C   0  0  0  0  0  0  0  0  0  0  0  0
    1.7562    5.8110    0.1625 N   0  0  0  0  0  0  0  0  0  0  0  0
    2.7851    6.7110    0.1572 C   0  0  0  0  0  0  0  0  0  0  0  0
    2.3729    7.8658    0.6708 N   0  0  0  0  0  0  0  0  0  0  0  0
    1.0760    7.7490    1.0216 C   0  0  0  0  0  0  0  0  0  0  0  0
    0.1789    8.6289    1.5911 C   0  0  0  0  0  0  0  0  0  0  0  0
    0.5222    9.7981    1.8832 O   0  0  0  0  0  0  0  0  0  0  0  0
   -1.0829    8.1622    1.8151 N   0  0  0  0  0  0  0  0  0  0  0  0
   -1.4303    6.8916    1.4904 C   0  0  0  0  0  0  0  0  0  0  0  0
   -2.7735    6.4778    1.7585 N   0  0  0  0  0  0  0  0  0  0  0  0
   -0.5478    6.0409    0.9353 N   0  0  0  0  0  0  0  0  0  0  0  0
    0.7054    6.4516    0.6948 C   0  0  0  0  0  0  0  0  0  0  0  0
    1.7333   -0.0903    0.6240 P   0  0  0  0  0  0  0  0  0  0  0  0
    0.1473    0.2379    1.1719 O   0  0  0  0  0  0  0  0  0  0  0  0
    1.7096   -0.2419   -0.8829 O   0  0  0  0  0  0  0  0  0  0  0  0
    2.2277   -1.4926    1.3953 O   0  0  0  0  0  0  0  0  0  0  0  0
    1.6142   -1.5396    2.6434 C   0  0  0  0  0  0  0  0  0  0  0  0
    1.9603   -2.7982    3.4249 C   0  0  0  0  0  0  0  0  0  0  0  0
    1.5440   -3.8796    2.6953 O   0  0  0  0  0  0  0  0  0  0  0  0
    1.1503   -2.7642    4.7009 C   0  0  0  0  0  0  0  0  0  0  0  0
    0.3225   -1.6622    4.7657 O   0  0  0  0  0  0  0  0  0  0  0  0
    0.2961   -4.0020    4.5882 C   0  0  0  0  0  0  0  0  0  0  0  0
    1.0382   -4.8235    3.5837 C   0  0  0  0  0  0  0  0  0  0  0  0
    0.0814   -5.6856    2.9137 N   0  0  0  0  0  0  0  0  0  0  0  0
   -0.7320   -6.5256    3.5671 C   0  0  0  0  0  0  0  0  0  0  0  0
   -0.6864   -6.5900    4.8231 O   0  0  0  0  0  0  0  0  0  0  0  0
   -1.6070   -7.3118    2.9125 N   0  0  0  0  0  0  0  0  0  0  0  0
   -1.7027   -7.2878    1.5648 C   0  0  0  0  0  0  0  0  0  0  0  0
   -2.5216   -8.0238    0.9589 O   0  0  0  0  0  0  0  0  0  0  0  0
   -0.8838   -6.4378    0.8572 C   0  0  0  0  0  0  0  0  0  0  0  0
   -0.9344   -6.3596   -0.6204 C   0  0  0  0  0  0  0  0  0  0  0  0
    0.0088   -5.6402    1.5727 C   0  0  0  0  0  0  0  0  0  0  0  0
    0.5415   -0.7187    6.1398 P   0  0  0  0  0  0  0  0  0  0  0  0
    1.8825   -1.1831    7.0468 O   0  0  0  0  0  0  0  0  0  0  0  0
   -0.6946   -0.8188    6.9922 O   0  0  0  0  0  0  0  0  0  0  0  0
    0.7049    0.8835    5.6172 O   0  0  0  0  0  0  0  0  0  0  0  0
    0.1299    1.7040    6.5568 C   0  0  0  0  0  0  0  0  0  0  0  0
    0.1618    3.1599    6.1882 C   0  0  0  0  0  0  0  0  0  0  0  0
    1.4707    3.6001    6.0206 O   0  0  0  0  0  0  0  0  0  0  0  0
   -0.6150    3.5203    4.9669 C   0  0  0  0  0  0  0  0  0  0  0  0
   -0.9680    2.4374    4.1627 O   0  0  0  0  0  0  0  0  0  0  0  0
    0.4221    4.3252    4.1843 C   0  0  0  0  0  0  0  0  0  0  0  0
    1.6792    3.6144    4.6259 C   0  0  0  0  0  0  0  0  0  0  0  0
    2.8886    4.3116    4.3135 N   0  0  0  0  0  0  0  0  0  0  0  0
    3.1010    5.6202    4.1588 C   0  0  0  0  0  0  0  0  0  0  0  0
    4.3987    5.8398    3.8666 N   0  0  0  0  0  0  0  0  0  0  0  0
    5.0371    4.6486    3.8318 C   0  0  0  0  0  0  0  0  0  0  0  0
    6.3184    4.2146    3.5991 C   0  0  0  0  0  0  0  0  0  0  0  0
    7.3091    5.2017    3.3068 N   0  0  0  0  0  0  0  0  0  0  0  0
    6.5902    2.9185    3.6522 N   0  0  0  0  0  0  0  0  0  0  0  0
    5.6573    1.9705    3.9286 C   0  0  0  0  0  0  0  0  0  0  0  0
    4.4055    2.3821    4.1569 N   0  0  0  0  0  0  0  0  0  0  0  0
    4.0795    3.7080    4.1129 C   0  0  0  0  0  0  0  0  0  0  0  0
   -2.6102    2.3745    3.8555 P   0  0  0  0  0  0  0  0  0  0  0  0
   -3.2808    1.1393    4.8230 O   0  0  0  0  0  0  0  0  0  0  0  0
   -3.2018    3.7047    4.3024 O   0  0  0  0  0  0  0  0  0  0  0  0
   -2.9692    2.1096    2.2254 O   0  0  0  0  0  0  0  0  0  0  0  0
   -3.5636    0.8568    2.1096 C   0  0  0  0  0  0  0  0  0  0  0  0
   -4.1488    0.5864    0.7449 C   0  0  0  0  0  0  0  0  0  0  0  0
   -4.7089   -0.6848    0.7623 O   0  0  0  0  0  0  0  0  0  0  0  0
   -3.0854    0.6094   -0.3433 C   0  0  0  0  0  0  0  0  0  0  0  0
   -3.7005    1.1215   -1.4630 O   0  0  0  0  0  0  0  0  0  0  0  0
   -2.8890   -0.9183   -0.4963 C   0  0  0  0  0  0  0  0  0  0  0  0
   -4.3858   -1.2762   -0.4316 C   0  0  0  0  0  0  0  0  0  0  0  0
   -4.6397   -2.6673   -0.5431 N   0  0  0  0  0  0  0  0  0  0  0  0
   -4.6089   -3.5421    0.4659 C   0  0  0  0  0  0  0  0  0  0  0  0
   -4.3198   -3.0778    1.6127 O   0  0  0  0  0  0  0  0  0  0  0  0
   -4.8684   -4.8493    0.2904 N   0  0  0  0  0  0  0  0  0  0  0  0
   -5.1781   -5.3639   -0.9213 C   0  0  0  0  0  0  0  0  0  0  0  0
   -5.4590   -6.7387   -1.1321 N   0  0  0  0  0  0  0  0  0  0  0  0
   -5.2200   -4.4852   -1.9990 C   0  0  0  0  0  0  0  0  0  0  0  0
   -4.9485   -3.1514   -1.7829 C   0  0  0  0  0  0  0  0  0  0  0  0
   -2.9366    2.4648   -2.1396 P   0  0  0  0  0  0  0  0  0  0  0  0
   -2.8238    3.5553   -1.0764 O   0  0  0  0  0  0  0  0  0  0  0  0
   -1.4291    2.0332   -2.7669 O   0  0  0  0  0  0  0  0  0  0  0  0
   -3.8560    3.1053   -3.4035 O   0  0  0  0  0  0  0  0  0  0  0  0
   -2.9935    3.5425   -4.4025 C   0  0  0  0  0  0  0  0  0  0  0  0
   -3.6757    3.6443   -5.7264 C   0  0  0  0  0  0  0  0  0  0  0  0
   -4.7515    4.5412   -5.6265 O   0  0  0  0  0  0  0  0  0  0  0  0
   -2.8230    4.2360   -6.8247 C   0  0  0  0  0  0  0  0  0  0  0  0
   -2.0826    3.2633   -7.4968 O   0  0  0  0  0  0  0  0  0  0  0  0
   -3.9053    4.7775   -7.7710 C   0  0  0  0  0  0  0  0  0  0  0  0
   -5.1709    4.7033   -6.9558 C   0  0  0  0  0  0  0  0  0  0  0  0
   -5.9935    3.5870   -7.2932 N   0  0  0  0  0  0  0  0  0  0  0  0
   -6.1905    3.0476   -8.5046 C   0  0  0  0  0  0  0  0  0  0  0  0
   -7.0285    1.9924   -8.4329 N   0  0  0  0  0  0  0  0  0  0  0  0
   -7.3892    1.8345   -7.1532 C   0  0  0  0  0  0  0  0  0  0  0  0
   -8.2232    0.9191   -6.5051 C   0  0  0  0  0  0  0  0  0  0  0  0
   -8.8142    0.0033   -7.1731 O   0  0  0  0  0  0  0  0  0  0  0  0
   -8.4168    0.9905   -5.1562 N   0  0  0  0  0  0  0  0  0  0  0  0
   -7.7704    1.9791   -4.4826 C   0  0  0  0  0  0  0  0  0  0  0  0
   -7.9515    2.0851   -3.0571 N   0  0  0  0  0  0  0  0  0  0  0  0
   -6.9677    2.8587   -5.1127 N   0  0  0  0  0  0  0  0  0  0  0  0
   -6.7467    2.8252   -6.4460 C   0  0  0  0  0  0  0  0  0  0  0  0
    6.8953   -2.5698    3.4113 H   0  0  0  0  0  0  0  0  0  0  0  0
    4.8386   -3.3371    1.7586 H   0  0  0  0  0  0  0  0  0  0  0  0
    5.2396   -1.6814    2.3470 H   0  0  0  0  0  0  0  0  0  0  0  0
    7.2010   -1.6666    0.7164 H   0  0  0  0  0  0  0  0  0  0  0  0
    4.6815   -0.9294   -0.0702 H   0  0  0  0  0  0  0  0  0  0  0  0
    4.1123   -2.8253   -1.8418 H   0  0  0  0  0  0  0  0  0  0  0  0
    3.8920   -3.1680   -0.0325 H   0  0  0  0  0  0  0  0  0  0  0  0
    6.1419   -3.9862   -1.8946 H   0  0  0  0  0  0  0  0  0  0  0  0
    3.7030   -9.2929    1.3699 H   0  0  0  0  0  0  0  0  0  0  0  0
    4.0258   -9.8627   -0.3563 H   0  0  0  0  0  0  0  0  0  0  0  0
    6.4527   -8.0426    0.8901 H   0  0  0  0  0  0  0  0  0  0  0  0
    7.1539   -5.8056    0.3465 H   0  0  0  0  0  0  0  0  0  0  0  0
    3.7175    2.1434   -2.4803 H   0  0  0  0  0  0  0  0  0  0  0  0
    5.2013    2.8308   -1.7832 H   0  0  0  0  0  0  0  0  0  0  0  0
    4.2294    3.1855    0.3905 H   0  0  0  0  0  0  0  0  0  0  0  0
    1.6642    1.8338   -0.6463 H   0  0  0  0  0  0  0  0  0  0  0  0
    0.5796    3.1696    0.9136 H   0  0  0  0  0  0  0  0  0  0  0  0
    2.1991    3.7009    1.6511 H   0  0  0  0  0  0  0  0  0  0  0  0
    1.0980    4.2423   -1.1311 H   0  0  0  0  0  0  0  0  0  0  0  0
    3.8047    6.5415   -0.2052 H   0  0  0  0  0  0  0  0  0  0  0  0
   -3.5367    6.9659    1.2115 H   0  0  0  0  0  0  0  0  0  0  0  0
   -2.9977    5.7327    2.4536 H   0  0  0  0  0  0  0  0  0  0  0  0
   -0.8462    5.0872    0.7033 H   0  0  0  0  0  0  0  0  0  0  0  0
    1.9471   -0.6254    3.1815 H   0  0  0  0  0  0  0  0  0  0  0  0
    0.5181   -1.4404    2.5210 H   0  0  0  0  0  0  0  0  0  0  0  0
    3.0303   -2.8253    3.6855 H   0  0  0  0  0  0  0  0  0  0  0  0
    1.8173   -2.8554    5.5990 H   0  0  0  0  0  0  0  0  0  0  0  0
    0.1795   -4.5216    5.5622 H   0  0  0  0  0  0  0  0  0  0  0  0
   -0.7062   -3.7093    4.1892 H   0  0  0  0  0  0  0  0  0  0  0  0
    1.7833   -5.4688    4.0485 H   0  0  0  0  0  0  0  0  0  0  0  0
   -2.2516   -7.9746    3.4108 H   0  0  0  0  0  0  0  0  0  0  0  0
   -0.1787   -7.0446   -1.1028 H   0  0  0  0  0  0  0  0  0  0  0  0
   -0.7257   -5.3638   -1.0259 H   0  0  0  0  0  0  0  0  0  0  0  0
   -1.9230   -6.7543   -0.9267 H   0  0  0  0  0  0  0  0  0  0  0  0
    0.6422   -4.9827    1.0203 H   0  0  0  0  0  0  0  0  0  0  0  0
    0.7319    1.6009    7.4898 H   0  0  0  0  0  0  0  0  0  0  0  0
   -0.9085    1.4288    6.8379 H   0  0  0  0  0  0  0  0  0  0  0  0
   -0.2471    3.7554    7.0306 H   0  0  0  0  0  0  0  0  0  0  0  0
   -1.5258    4.0914    5.1841 H   0  0  0  0  0  0  0  0  0  0  0  0
    0.2011    4.2341    3.1133 H   0  0  0  0  0  0  0  0  0  0  0  0
    0.4060    5.3889    4.5343 H   0  0  0  0  0  0  0  0  0  0  0  0
    1.6473    2.5950    4.1883 H   0  0  0  0  0  0  0  0  0  0  0  0
    2.3651    6.3977    4.2487 H   0  0  0  0  0  0  0  0  0  0  0  0
    7.5198    5.9735    3.9808 H   0  0  0  0  0  0  0  0  0  0  0  0
    7.8038    5.1005    2.3783 H   0  0  0  0  0  0  0  0  0  0  0  0
    5.8925    0.9139    3.9669 H   0  0  0  0  0  0  0  0  0  0  0  0
   -4.3425    0.8136    2.8902 H   0  0  0  0  0  0  0  0  0  0  0  0
   -2.7513    0.1093    2.3530 H   0  0  0  0  0  0  0  0  0  0  0  0
   -4.9540    1.3299    0.5842 H   0  0  0  0  0  0  0  0  0  0  0  0
   -2.1748    1.1286   -0.0760 H   0  0  0  0  0  0  0  0  0  0  0  0
   -2.3203   -1.2934    0.3484 H   0  0  0  0  0  0  0  0  0  0  0  0
   -2.4490   -1.1898   -1.4487 H   0  0  0  0  0  0  0  0  0  0  0  0
   -4.8646   -0.7100   -1.2571 H   0  0  0  0  0  0  0  0  0  0  0  0
   -4.7627   -7.4299   -1.4844 H   0  0  0  0  0  0  0  0  0  0  0  0
   -6.4199   -7.0805   -0.9229 H   0  0  0  0  0  0  0  0  0  0  0  0
   -5.4666   -4.8408   -3.0099 H   0  0  0  0  0  0  0  0  0  0  0  0
   -4.9854   -2.4756   -2.6220 H   0  0  0  0  0  0  0  0  0  0  0  0
   -2.1510    2.8086   -4.4744 H   0  0  0  0  0  0  0  0  0  0  0  0
   -2.5668    4.5190   -4.1075 H   0  0  0  0  0  0  0  0  0  0  0  0
   -3.9965    2.6481   -6.0942 H   0  0  0  0  0  0  0  0  0  0  0  0
   -2.1998    5.0861   -6.4737 H   0  0  0  0  0  0  0  0  0  0  0  0
   -1.5621    2.7519   -6.8235 H   0  0  0  0  0  0  0  0  0  0  0  0
   -3.6914    5.8305   -8.0207 H   0  0  0  0  0  0  0  0  0  0  0  0
   -3.9318    4.1769   -8.6795 H   0  0  0  0  0  0  0  0  0  0  0  0
   -5.7545    5.6334   -7.0145 H   0  0  0  0  0  0  0  0  0  0  0  0
   -5.7607    3.3763   -9.4355 H   0  0  0  0  0  0  0  0  0  0  0  0
   -8.7339    2.7060   -2.7344 H   0  0  0  0  0  0  0  0  0  0  0  0
   -7.3544    1.5867   -2.3741 H   0  0  0  0  0  0  0  0  0  0  0  0
   -6.5162    3.5824   -4.5142 H   0  0  0  0  0  0  0  0  0  0  0  0
  1  2  1  0
  1121  1  0
  2  3  1  0
  2122  1  0
  2123  1  0
  3  4  1  0
  3  5  1  0
  3124  1  0
  4  8  1  0
  5  7  1  0
  5  6  1  0
  5125  1  0
  6 17  1  0
  7  8  1  0
  7126  1  0
  7127  1  0
  8  9  1  0
  8128  1  0
  9 16  1  0
  9 10  1  0
 10 12  1  0
 10 11  2  0
 12 13  2  0
 13 15  1  0
 13 14  1  0
 14129  1  0
 14130  1  0
 15 16  2  0
 15131  1  0
 16132  1  0
 17 20  1  0
 17 19  2  0
 17 18  1  0
 20 21  1  0
 21 22  1  0
 21133  1  0
 21134  1  0
 22 24  1  0
 22 23  1  0
 22135  1  0
 23 27  1  0
 24 25  1  0
 24 26  1  0
 24136  1  0
 25 39  1  0
 26 27  1  0
 26137  1  0
 26138  1  0
 27 28  1  0
 27139  1  0
 28 38  1  0
 28 29  1  0
 29 30  2  0
 29140  1  0
 30 31  1  0
 31 32  1  0
 31 38  2  0
 32 33  2  0
 32 34  1  0
 34 35  2  0
 35 36  1  0
 35 37  1  0
 36141  1  0
 36142  1  0
 37 38  1  0
 37143  1  0
 39 41  2  0
 39 42  1  0
 39 40  1  0
 42 43  1  0
 43 44  1  0
 43144  1  0
 43145  1  0
 44 46  1  0
 44 45  1  0
 44146  1  0
 45 49  1  0
 46 48  1  0
 46 47  1  0
 46147  1  0
 47 59  1  0
 48 49  1  0
 48148  1  0
 48149  1  0
 49 50  1  0
 49150  1  0
 50 51  1  0
 50 58  1  0
 51 53  1  0
 51 52  2  0
 53 54  1  0
 53151  1  0
 54 55  2  0
 54 56  1  0
 56 57  1  0
 56 58  2  0
 57152  1  0
 57153  1  0
 57154  1  0
 58155  1  0
 59 61  2  0
 59 62  1  0
 59 60  1  0
 62 63  1  0
 63 64  1  0
 63156  1  0
 63157  1  0
 64 66  1  0
 64 65  1  0
 64158  1  0
 65 69  1  0
 66 68  1  0
 66 67  1  0
 66159  1  0
 67 80  1  0
 68 69  1  0
 68160  1  0
 68161  1  0
 69 70  1  0
 69162  1  0
 70 79  1  0
 70 71  1  0
 71 72  2  0
 71163  1  0
 72 73  1  0
 73 79  2  0
 73 74  1  0
 74 76  2  0
 74 75  1  0
 75164  1  0
 75165  1  0
 76 77  1  0
 77 78  2  0
 77166  1  0
 78 79  1  0
 80 83  1  0
 80 82  2  0
 80 81  1  0
 83 84  1  0
 84 85  1  0
 84167  1  0
 84168  1  0
 85 87  1  0
 85 86  1  0
 85169  1  0
 86 90  1  0
 87 88  1  0
 87 89  1  0
 87170  1  0
 88 99  1  0
 89 90  1  0
 89171  1  0
 89172  1  0
 90 91  1  0
 90173  1  0
 91 98  1  0
 91 92  1  0
 92 93  2  0
 92 94  1  0
 94 95  2  0
 95 97  1  0
 95 96  1  0
 96174  1  0
 96175  1  0
 97 98  2  0
 97176  1  0
 98177  1  0
 99100  2  0
 99101  1  0
 99102  1  0
102103  1  0
103104  1  0
103178  1  0
103179  1  0
104105  1  0
104106  1  0
104180  1  0
105109  1  0
106108  1  0
106107  1  0
106181  1  0
107182  1  0
108109  1  0
108183  1  0
108184  1  0
109110  1  0
109185  1  0
110111  1  0
110120  1  0
111112  2  0
111186  1  0
112113  1  0
113114  1  0
113120  2  0
114115  2  0
114116  1  0
116117  2  0
117118  1  0
117119  1  0
118187  1  0
118188  1  0
119120  1  0
119189  1  0
M  CHG  5  18  -1  40  -1  60  -1  81  -1 101  -1
M  END
$$$$
DNA (5'-D(*CP*GP*TP*AP*CP*G)-3')
     RDKit          3D

189203  0  0  0  0  0  0  0  0999 V2000
    1.0564    5.2462   -8.4439 O   0  0  0  0  0  0  0  0  0  0  0  0
    1.1431    3.9975   -7.8670 C   0  0  0  0  0  0  0  0  0  0  0  0
    0.8849    4.0569   -6.3749 C   0  0  0  0  0  0  0  0  0  0  0  0
    1.7758    4.8660   -5.7159 O   0  0  0  0  0  0  0  0  0  0  0  0
    0.9801    2.6596   -5.7980 C   0  0  0  0  0  0  0  0  0  0  0  0
   -0.2607    2.0530   -5.6843 O   0  0  0  0  0  0  0  0  0  0  0  0
    1.5938    2.9755   -4.4608 C   0  0  0  0  0  0  0  0  0  0  0  0
    2.4479    4.1310   -4.7766 C   0  0  0  0  0  0  0  0  0  0  0  0
    3.7673    3.8497   -5.2720 N   0  0  0  0  0  0  0  0  0  0  0  0
    4.5211    4.9310   -5.6283 C   0  0  0  0  0  0  0  0  0  0  0  0
    4.0834    6.1091   -5.5261 O   0  0  0  0  0  0  0  0  0  0  0  0
    5.7689    4.7873   -6.1050 N   0  0  0  0  0  0  0  0  0  0  0  0
    6.3655    3.5691   -6.2660 C   0  0  0  0  0  0  0  0  0  0  0  0
    7.6869    3.4732   -6.7781 N   0  0  0  0  0  0  0  0  0  0  0  0
    5.6027    2.4807   -5.9066 C   0  0  0  0  0  0  0  0  0  0  0  0
    4.3037    2.6437   -5.4105 C   0  0  0  0  0  0  0  0  0  0  0  0
   -0.2704    0.7068   -6.6963 P   0  0  0  0  0  0  0  0  0  0  0  0
    1.0418    0.8025   -7.7593 O   0  0  0  0  0  0  0  0  0  0  0  0
   -1.5115    0.8126   -7.5882 O   0  0  0  0  0  0  0  0  0  0  0  0
   -0.2950   -0.7622   -5.8724 O   0  0  0  0  0  0  0  0  0  0  0  0
   -1.2132   -1.6764   -6.3927 C   0  0  0  0  0  0  0  0  0  0  0  0
   -1.0729   -3.0325   -5.7417 C   0  0  0  0  0  0  0  0  0  0  0  0
   -1.9985   -3.8894   -6.2940 O   0  0  0  0  0  0  0  0  0  0  0  0
    0.3149   -3.5958   -5.9702 C   0  0  0  0  0  0  0  0  0  0  0  0
    0.9242   -3.9891   -4.8073 O   0  0  0  0  0  0  0  0  0  0  0  0
    0.0656   -4.6717   -6.9728 C   0  0  0  0  0  0  0  0  0  0  0  0
   -1.3305   -5.0938   -6.5395 C   0  0  0  0  0  0  0  0  0  0  0  0
   -1.9863   -5.9517   -7.4819 N   0  0  0  0  0  0  0  0  0  0  0  0
   -2.3851   -5.6886   -8.7444 C   0  0  0  0  0  0  0  0  0  0  0  0
   -2.9784   -6.7929   -9.2802 N   0  0  0  0  0  0  0  0  0  0  0  0
   -2.9642   -7.7724   -8.3650 C   0  0  0  0  0  0  0  0  0  0  0  0
   -3.4253   -9.0929   -8.3677 C   0  0  0  0  0  0  0  0  0  0  0  0
   -3.9887   -9.5873   -9.3737 O   0  0  0  0  0  0  0  0  0  0  0  0
   -3.2280   -9.8101   -7.2209 N   0  0  0  0  0  0  0  0  0  0  0  0
   -2.6324   -9.2968   -6.1534 C   0  0  0  0  0  0  0  0  0  0  0  0
   -2.4081  -10.0267   -4.9359 N   0  0  0  0  0  0  0  0  0  0  0  0
   -2.1815   -8.0123   -6.1443 N   0  0  0  0  0  0  0  0  0  0  0  0
   -2.3486   -7.2418   -7.2603 C   0  0  0  0  0  0  0  0  0  0  0  0
    2.0320   -2.9397   -4.1368 P   0  0  0  0  0  0  0  0  0  0  0  0
    3.4020   -3.6944   -3.5052 O   0  0  0  0  0  0  0  0  0  0  0  0
    2.4988   -1.9998   -5.2237 O   0  0  0  0  0  0  0  0  0  0  0  0
    1.3471   -1.9840   -2.9186 O   0  0  0  0  0  0  0  0  0  0  0  0
    1.3480   -2.7590   -1.7582 C   0  0  0  0  0  0  0  0  0  0  0  0
    0.0435   -2.6273   -1.0049 C   0  0  0  0  0  0  0  0  0  0  0  0
    0.1075   -3.3824    0.1366 O   0  0  0  0  0  0  0  0  0  0  0  0
   -0.2739   -1.2004   -0.6401 C   0  0  0  0  0  0  0  0  0  0  0  0
   -1.5764   -0.8601   -1.0123 O   0  0  0  0  0  0  0  0  0  0  0  0
   -0.1679   -1.1632    0.8470 C   0  0  0  0  0  0  0  0  0  0  0  0
   -0.0240   -2.5838    1.2427 C   0  0  0  0  0  0  0  0  0  0  0  0
   -1.0322   -3.0879    2.1449 N   0  0  0  0  0  0  0  0  0  0  0  0
   -0.7108   -4.0621    3.0413 C   0  0  0  0  0  0  0  0  0  0  0  0
    0.4789   -4.4705    3.0215 O   0  0  0  0  0  0  0  0  0  0  0  0
   -1.6012   -4.5712    3.9065 N   0  0  0  0  0  0  0  0  0  0  0  0
   -2.8736   -4.1408    3.9343 C   0  0  0  0  0  0  0  0  0  0  0  0
   -3.7391   -4.5827    4.7205 O   0  0  0  0  0  0  0  0  0  0  0  0
   -3.2517   -3.1587    3.0509 C   0  0  0  0  0  0  0  0  0  0  0  0
   -4.6350   -2.6217    3.0051 C   0  0  0  0  0  0  0  0  0  0  0  0
   -2.3059   -2.6466    2.1619 C   0  0  0  0  0  0  0  0  0  0  0  0
   -1.6208    0.3393   -2.1748 P   0  0  0  0  0  0  0  0  0  0  0  0
   -0.0909    0.7412   -2.7685 O   0  0  0  0  0  0  0  0  0  0  0  0
   -2.4425   -0.1083   -3.3810 O   0  0  0  0  0  0  0  0  0  0  0  0
   -2.3478    1.7494   -1.6122 O   0  0  0  0  0  0  0  0  0  0  0  0
   -1.5889    2.8579   -1.9668 C   0  0  0  0  0  0  0  0  0  0  0  0
   -1.9942    4.0808   -1.1603 C   0  0  0  0  0  0  0  0  0  0  0  0
   -3.2928    4.4598   -1.3242 O   0  0  0  0  0  0  0  0  0  0  0  0
   -1.7994    3.8278    0.3218 C   0  0  0  0  0  0  0  0  0  0  0  0
   -1.1373    4.8833    0.8914 O   0  0  0  0  0  0  0  0  0  0  0  0
   -3.1789    3.7054    0.8710 C   0  0  0  0  0  0  0  0  0  0  0  0
   -4.0674    4.0597   -0.2695 C   0  0  0  0  0  0  0  0  0  0  0  0
   -4.9507    2.9973   -0.7009 N   0  0  0  0  0  0  0  0  0  0  0  0
   -5.3722    2.8543   -1.9829 C   0  0  0  0  0  0  0  0  0  0  0  0
   -6.1740    1.7898   -2.0974 N   0  0  0  0  0  0  0  0  0  0  0  0
   -6.2742    1.2384   -0.8819 C   0  0  0  0  0  0  0  0  0  0  0  0
   -6.9828    0.1121   -0.4478 C   0  0  0  0  0  0  0  0  0  0  0  0
   -7.7366   -0.6062   -1.3955 N   0  0  0  0  0  0  0  0  0  0  0  0
   -6.8838   -0.1972    0.8465 N   0  0  0  0  0  0  0  0  0  0  0  0
   -6.1317    0.5550    1.6773 C   0  0  0  0  0  0  0  0  0  0  0  0
   -5.4483    1.6415    1.2595 N   0  0  0  0  0  0  0  0  0  0  0  0
   -5.5102    1.9947   -0.0161 C   0  0  0  0  0  0  0  0  0  0  0  0
    0.3824    4.3777    1.4157 P   0  0  0  0  0  0  0  0  0  0  0  0
    1.6122    5.1755    0.5616 O   0  0  0  0  0  0  0  0  0  0  0  0
    0.5421    2.9063    1.1510 O   0  0  0  0  0  0  0  0  0  0  0  0
    0.4859    4.6599    3.0855 O   0  0  0  0  0  0  0  0  0  0  0  0
    1.8002    4.4949    3.5305 C   0  0  0  0  0  0  0  0  0  0  0  0
    1.9238    4.5010    5.0332 C   0  0  0  0  0  0  0  0  0  0  0  0
    3.2678    4.3376    5.4189 O   0  0  0  0  0  0  0  0  0  0  0  0
    1.1914    3.3703    5.6767 C   0  0  0  0  0  0  0  0  0  0  0  0
    0.0562    2.9526    4.9790 O   0  0  0  0  0  0  0  0  0  0  0  0
    2.2479    2.2586    5.6693 C   0  0  0  0  0  0  0  0  0  0  0  0
    3.5141    2.9923    5.2895 C   0  0  0  0  0  0  0  0  0  0  0  0
    4.6443    2.5272    6.0823 N   0  0  0  0  0  0  0  0  0  0  0  0
    5.6092    1.7404    5.5716 C   0  0  0  0  0  0  0  0  0  0  0  0
    5.5646    1.3813    4.3498 O   0  0  0  0  0  0  0  0  0  0  0  0
    6.6547    1.2965    6.3015 N   0  0  0  0  0  0  0  0  0  0  0  0
    6.7325    1.6649    7.6155 C   0  0  0  0  0  0  0  0  0  0  0  0
    7.8069    1.2278    8.4482 N   0  0  0  0  0  0  0  0  0  0  0  0
    5.7644    2.4746    8.1906 C   0  0  0  0  0  0  0  0  0  0  0  0
    4.7068    2.8987    7.3745 C   0  0  0  0  0  0  0  0  0  0  0  0
   -1.2260    2.8029    6.0850 P   0  0  0  0  0  0  0  0  0  0  0  0
   -1.0357    3.8205    7.1745 O   0  0  0  0  0  0  0  0  0  0  0  0
   -2.6749    3.1595    5.2743 O   0  0  0  0  0  0  0  0  0  0  0  0
   -1.2875    1.2169    6.6924 O   0  0  0  0  0  0  0  0  0  0  0  0
   -1.1740    1.2273    8.0605 C   0  0  0  0  0  0  0  0  0  0  0  0
   -1.1543   -0.1476    8.6815 C   0  0  0  0  0  0  0  0  0  0  0  0
   -0.0869   -0.9099    8.2095 O   0  0  0  0  0  0  0  0  0  0  0  0
   -2.4196   -0.9109    8.4326 C   0  0  0  0  0  0  0  0  0  0  0  0
   -3.2787   -0.2561    7.5396 O   0  0  0  0  0  0  0  0  0  0  0  0
   -1.9486   -2.1940    7.7522 C   0  0  0  0  0  0  0  0  0  0  0  0
   -0.6158   -1.7135    7.1952 C   0  0  0  0  0  0  0  0  0  0  0  0
    0.2629   -2.8305    6.9502 N   0  0  0  0  0  0  0  0  0  0  0  0
    0.3556   -4.0324    7.5096 C   0  0  0  0  0  0  0  0  0  0  0  0
    1.3491   -4.7414    6.9376 N   0  0  0  0  0  0  0  0  0  0  0  0
    1.9147   -3.9847    5.9858 C   0  0  0  0  0  0  0  0  0  0  0  0
    2.9510   -4.1976    5.1045 C   0  0  0  0  0  0  0  0  0  0  0  0
    3.6008   -5.2717    5.0595 O   0  0  0  0  0  0  0  0  0  0  0  0
    3.2642   -3.1972    4.2638 N   0  0  0  0  0  0  0  0  0  0  0  0
    2.6139   -2.0167    4.2523 C   0  0  0  0  0  0  0  0  0  0  0  0
    3.0498   -1.0459    3.3101 N   0  0  0  0  0  0  0  0  0  0  0  0
    1.6024   -1.8156    5.1161 N   0  0  0  0  0  0  0  0  0  0  0  0
    1.2363   -2.7934    5.9952 C   0  0  0  0  0  0  0  0  0  0  0  0
    0.7193    5.8751   -7.7566 H   0  0  0  0  0  0  0  0  0  0  0  0
    0.3032    3.3881   -8.2803 H   0  0  0  0  0  0  0  0  0  0  0  0
    2.0764    3.4587   -8.0284 H   0  0  0  0  0  0  0  0  0  0  0  0
   -0.1300    4.5103   -6.1998 H   0  0  0  0  0  0  0  0  0  0  0  0
    1.6669    2.1082   -6.4758 H   0  0  0  0  0  0  0  0  0  0  0  0
    2.0830    2.1273   -3.9675 H   0  0  0  0  0  0  0  0  0  0  0  0
    0.7567    3.3330   -3.8174 H   0  0  0  0  0  0  0  0  0  0  0  0
    2.6073    4.7511   -3.8439 H   0  0  0  0  0  0  0  0  0  0  0  0
    7.9539    3.8929   -7.7030 H   0  0  0  0  0  0  0  0  0  0  0  0
    8.4335    2.9687   -6.2215 H   0  0  0  0  0  0  0  0  0  0  0  0
    6.0371    1.4986   -6.0185 H   0  0  0  0  0  0  0  0  0  0  0  0
    3.7280    1.7869   -5.1369 H   0  0  0  0  0  0  0  0  0  0  0  0
   -2.2349   -1.2796   -6.2106 H   0  0  0  0  0  0  0  0  0  0  0  0
   -1.0703   -1.7254   -7.4907 H   0  0  0  0  0  0  0  0  0  0  0  0
   -1.2237   -2.8580   -4.6443 H   0  0  0  0  0  0  0  0  0  0  0  0
    0.8978   -2.7796   -6.4185 H   0  0  0  0  0  0  0  0  0  0  0  0
   -0.0208   -4.2635   -7.9978 H   0  0  0  0  0  0  0  0  0  0  0  0
    0.7926   -5.4789   -6.8911 H   0  0  0  0  0  0  0  0  0  0  0  0
   -1.1728   -5.6662   -5.6029 H   0  0  0  0  0  0  0  0  0  0  0  0
   -2.2719   -4.7646   -9.2809 H   0  0  0  0  0  0  0  0  0  0  0  0
   -3.0780  -10.7714   -4.6046 H   0  0  0  0  0  0  0  0  0  0  0  0
   -1.5758   -9.8587   -4.3243 H   0  0  0  0  0  0  0  0  0  0  0  0
   -1.7085   -7.6090   -5.2936 H   0  0  0  0  0  0  0  0  0  0  0  0
    1.4946   -3.8346   -1.9841 H   0  0  0  0  0  0  0  0  0  0  0  0
    2.1615   -2.4581   -1.0499 H   0  0  0  0  0  0  0  0  0  0  0  0
   -0.7517   -2.9956   -1.6992 H   0  0  0  0  0  0  0  0  0  0  0  0
    0.4253   -0.5515   -1.1835 H   0  0  0  0  0  0  0  0  0  0  0  0
    0.7522   -0.5643    1.0865 H   0  0  0  0  0  0  0  0  0  0  0  0
   -0.9892   -0.6179    1.3399 H   0  0  0  0  0  0  0  0  0  0  0  0
    0.9502   -2.6815    1.8116 H   0  0  0  0  0  0  0  0  0  0  0  0
   -1.2843   -5.3183    4.5659 H   0  0  0  0  0  0  0  0  0  0  0  0
   -4.7437   -1.6471    3.4981 H   0  0  0  0  0  0  0  0  0  0  0  0
   -5.0470   -2.6492    1.9660 H   0  0  0  0  0  0  0  0  0  0  0  0
   -5.2848   -3.3187    3.5765 H   0  0  0  0  0  0  0  0  0  0  0  0
   -2.6106   -1.8776    1.4754 H   0  0  0  0  0  0  0  0  0  0  0  0
   -1.6319    3.0936   -3.0461 H   0  0  0  0  0  0  0  0  0  0  0  0
   -0.5329    2.6260   -1.7228 H   0  0  0  0  0  0  0  0  0  0  0  0
   -1.3264    4.9151   -1.4562 H   0  0  0  0  0  0  0  0  0  0  0  0
   -1.2067    2.8894    0.4071 H   0  0  0  0  0  0  0  0  0  0  0  0
   -3.3255    2.6698    1.2469 H   0  0  0  0  0  0  0  0  0  0  0  0
   -3.3574    4.4258    1.7193 H   0  0  0  0  0  0  0  0  0  0  0  0
   -4.7198    4.9420   -0.0012 H   0  0  0  0  0  0  0  0  0  0  0  0
   -5.1185    3.4948   -2.8391 H   0  0  0  0  0  0  0  0  0  0  0  0
   -7.2928   -1.1199   -2.2071 H   0  0  0  0  0  0  0  0  0  0  0  0
   -8.7972   -0.6795   -1.3613 H   0  0  0  0  0  0  0  0  0  0  0  0
   -6.0925    0.2497    2.7307 H   0  0  0  0  0  0  0  0  0  0  0  0
    2.1846    3.5711    3.0608 H   0  0  0  0  0  0  0  0  0  0  0  0
    2.4089    5.3186    3.1131 H   0  0  0  0  0  0  0  0  0  0  0  0
    1.5318    5.4587    5.4029 H   0  0  0  0  0  0  0  0  0  0  0  0
    0.8962    3.5232    6.7131 H   0  0  0  0  0  0  0  0  0  0  0  0
    2.3305    1.7767    6.6661 H   0  0  0  0  0  0  0  0  0  0  0  0
    1.9290    1.5153    4.9356 H   0  0  0  0  0  0  0  0  0  0  0  0
    3.7309    2.7559    4.2232 H   0  0  0  0  0  0  0  0  0  0  0  0
    7.6923    0.4825    9.1475 H   0  0  0  0  0  0  0  0  0  0  0  0
    8.7569    1.6602    8.3705 H   0  0  0  0  0  0  0  0  0  0  0  0
    5.7899    2.7863    9.2222 H   0  0  0  0  0  0  0  0  0  0  0  0
    3.9322    3.5339    7.7870 H   0  0  0  0  0  0  0  0  0  0  0  0
   -0.2574    1.7914    8.3181 H   0  0  0  0  0  0  0  0  0  0  0  0
   -2.0312    1.7899    8.5037 H   0  0  0  0  0  0  0  0  0  0  0  0
   -1.0215   -0.0217    9.7698 H   0  0  0  0  0  0  0  0  0  0  0  0
   -2.9853   -1.1606    9.3465 H   0  0  0  0  0  0  0  0  0  0  0  0
   -3.0192   -0.3825    6.6022 H   0  0  0  0  0  0  0  0  0  0  0  0
   -1.7993   -3.0033    8.5046 H   0  0  0  0  0  0  0  0  0  0  0  0
   -2.5883   -2.4916    6.9125 H   0  0  0  0  0  0  0  0  0  0  0  0
   -0.7763   -1.1632    6.2622 H   0  0  0  0  0  0  0  0  0  0  0  0
   -0.2886   -4.3788    8.3142 H   0  0  0  0  0  0  0  0  0  0  0  0
    3.3756   -1.3834    2.3729 H   0  0  0  0  0  0  0  0  0  0  0  0
    3.0681   -0.0218    3.4855 H   0  0  0  0  0  0  0  0  0  0  0  0
    1.0957   -0.9062    5.1117 H   0  0  0  0  0  0  0  0  0  0  0  0
  1  2  1  0
  1121  1  0
  2  3  1  0
  2122  1  0
  2123  1  0
  3  4  1  0
  3  5  1  0
  3124  1  0
  4  8  1  0
  5  7  1  0
  5  6  1  0
  5125  1  0
  6 17  1  0
  7  8  1  0
  7126  1  0
  7127  1  0
  8  9  1  0
  8128  1  0
  9 16  1  0
  9 10  1  0
 10 12  1  0
 10 11  2  0
 12 13  2  0
 13 15  1  0
 13 14  1  0
 14129  1  0
 14130  1  0
 15 16  2  0
 15131  1  0
 16132  1  0
 17 20  1  0
 17 19  2  0
 17 18  1  0
 20 21  1  0
 21 22  1  0
 21133  1  0
 21134  1  0
 22 24  1  0
 22 23  1  0
 22135  1  0
 23 27  1  0
 24 25  1  0
 24 26  1  0
 24136  1  0
 25 39  1  0
 26 27  1  0
 26137  1  0
 26138  1  0
 27 28  1  0
 27139  1  0
 28 38  1  0
 28 29  1  0
 29 30  2  0
 29140  1  0
 30 31  1  0
 31 32  1  0
 31 38  2  0
 32 33  2  0
 32 34  1  0
 34 35  2  0
 35 36  1  0
 35 37  1  0
 36141  1  0
 36142  1  0
 37 38  1  0
 37143  1  0
 39 41  2  0
 39 42  1  0
 39 40  1  0
 42 43  1  0
 43 44  1  0
 43144  1  0
 43145  1  0
 44 46  1  0
 44 45  1  0
 44146  1  0
 45 49  1  0
 46 48  1  0
 46 47  1  0
 46147  1  0
 47 59  1  0
 48 49  1  0
 48148  1  0
 48149  1  0
 49 50  1  0
 49150  1  0
 50 51  1  0
 50 58  1  0
 51 53  1  0
 51 52  2  0
 53 54  1  0
 53151  1  0
 54 55  2  0
 54 56  1  0
 56 57  1  0
 56 58  2  0
 57152  1  0
 57153  1  0
 57154  1  0
 58155  1  0
 59 61  2  0
 59 62  1  0
 59 60  1  0
 62 63  1  0
 63 64  1  0
 63156  1  0
 63157  1  0
 64 66  1  0
 64 65  1  0
 64158  1  0
 65 69  1  0
 66 68  1  0
 66 67  1  0
 66159  1  0
 67 80  1  0
 68 69  1  0
 68160  1  0
 68161  1  0
 69 70  1  0
 69162  1  0
 70 79  1  0
 70 71  1  0
 71 72  2  0
 71163  1  0
 72 73  1  0
 73 79  2  0
 73 74  1  0
 74 76  2  0
 74 75  1  0
 75164  1  0
 75165  1  0
 76 77  1  0
 77 78  2  0
 77166  1  0
 78 79  1  0
 80 83  1  0
 80 82  2  0
 80 81  1  0
 83 84  1  0
 84 85  1  0
 84167  1  0
 84168  1  0
 85 87  1  0
 85 86  1  0
 85169  1  0
 86 90  1  0
 87 88  1  0
 87 89  1  0
 87170  1  0
 88 99  1  0
 89 90  1  0
 89171  1  0
 89172  1  0
 90 91  1  0
 90173  1  0
 91 98  1  0
 91 92  1  0
 92 93  2  0
 92 94  1  0
 94 95  2  0
 95 97  1  0
 95 96  1  0
 96174  1  0
 96175  1  0
 97 98  2  0
 97176  1  0
 98177  1  0
 99100  2  0
 99101  1  0
 99102  1  0
102103  1  0
103104  1  0
103178  1  0
103179  1  0
104105  1  0
104106  1  0
104180  1  0
105109  1  0
106108  1  0
106107  1  0
106181  1  0
107182  1  0
108109  1  0
108183  1  0
108184  1  0
109110  1  0
109185  1  0
110111  1  0
110120  1  0
111112  2  0
111186  1  0
112113  1  0
113114  1  0
113120  2  0
114115  2  0
114116  1  0
116117  2  0
117118  1  0
117119  1  0
118187  1  0
118188  1  0
119120  1  0
119189  1  0
M  CHG  5  18  -1  40  -1  60  -1  81  -1 101  -1
M  END
$$$$
DNA (5'-D(*CP*GP*TP*AP*CP*G)-3')
     RDKit          3D

189203  0  0  0  0  0  0  0  0999 V2000
    5.9425   -8.6163   -3.7597 O   0  0  0  0  0  0  0  0  0  0  0  0
    4.7012   -8.1950   -3.3446 C   0  0  0  0  0  0  0  0  0  0  0  0
    3.9696   -7.5309   -4.5160 C   0  0  0  0  0  0  0  0  0  0  0  0
    4.7747   -6.4597   -4.8899 O   0  0  0  0  0  0  0  0  0  0  0  0
    2.6462   -6.9874   -4.0567 C   0  0  0  0  0  0  0  0  0  0  0  0
    1.5425   -7.6226   -4.5621 O   0  0  0  0  0  0  0  0  0  0  0  0
    2.7535   -5.5479   -4.5936 C   0  0  0  0  0  0  0  0  0  0  0  0
    4.2450   -5.3265   -4.3105 C   0  0  0  0  0  0  0  0  0  0  0  0
    4.7140   -4.1184   -4.9426 N   0  0  0  0  0  0  0  0  0  0  0  0
    5.1026   -4.1156   -6.2330 C   0  0  0  0  0  0  0  0  0  0  0  0
    5.0662   -5.1798   -6.9207 O   0  0  0  0  0  0  0  0  0  0  0  0
    5.5319   -2.9453   -6.7716 N   0  0  0  0  0  0  0  0  0  0  0  0
    5.5889   -1.8013   -6.0916 C   0  0  0  0  0  0  0  0  0  0  0  0
    6.0562   -0.6444   -6.7700 N   0  0  0  0  0  0  0  0  0  0  0  0
    5.1965   -1.7768   -4.7671 C   0  0  0  0  0  0  0  0  0  0  0  0
    4.7562   -2.9698   -4.2100 C   0  0  0  0  0  0  0  0  0  0  0  0
    0.5041   -8.0160   -3.2963 P   0  0  0  0  0  0  0  0  0  0  0  0
   -0.1144   -9.5683   -3.5934 O   0  0  0  0  0  0  0  0  0  0  0  0
   -0.6893   -7.0734   -3.2501 O   0  0  0  0  0  0  0  0  0  0  0  0
    1.2683   -7.9386   -1.7981 O   0  0  0  0  0  0  0  0  0  0  0  0
    0.8675   -6.8239   -1.1007 C   0  0  0  0  0  0  0  0  0  0  0  0
    1.4467   -6.7834    0.3004 C   0  0  0  0  0  0  0  0  0  0  0  0
    2.8094   -6.7898    0.2440 O   0  0  0  0  0  0  0  0  0  0  0  0
    1.0088   -5.5483    1.0444 C   0  0  0  0  0  0  0  0  0  0  0  0
    0.8365   -5.8181    2.4049 O   0  0  0  0  0  0  0  0  0  0  0  0
    2.2023   -4.6445    0.8922 C   0  0  0  0  0  0  0  0  0  0  0  0
    3.3207   -5.6118    0.7096 C   0  0  0  0  0  0  0  0  0  0  0  0
    4.0911   -5.8469    1.8916 N   0  0  0  0  0  0  0  0  0  0  0  0
    3.8857   -5.3449    3.1069 C   0  0  0  0  0  0  0  0  0  0  0  0
    4.8267   -5.7939    3.9822 N   0  0  0  0  0  0  0  0  0  0  0  0
    5.6170   -6.5910    3.2548 C   0  0  0  0  0  0  0  0  0  0  0  0
    6.7340   -7.3005    3.6823 C   0  0  0  0  0  0  0  0  0  0  0  0
    7.1292   -7.2536    4.8683 O   0  0  0  0  0  0  0  0  0  0  0  0
    7.3849   -8.0483    2.7705 N   0  0  0  0  0  0  0  0  0  0  0  0
    6.9316   -8.0733    1.5092 C   0  0  0  0  0  0  0  0  0  0  0  0
    7.6529   -8.8791    0.5814 N   0  0  0  0  0  0  0  0  0  0  0  0
    5.8622   -7.4007    1.0762 N   0  0  0  0  0  0  0  0  0  0  0  0
    5.1758   -6.6387    1.9462 C   0  0  0  0  0  0  0  0  0  0  0  0
   -0.7141   -5.2437    2.8506 P   0  0  0  0  0  0  0  0  0  0  0  0
   -1.8888   -6.3982    2.5165 O   0  0  0  0  0  0  0  0  0  0  0  0
   -0.7040   -4.9433    4.3290 O   0  0  0  0  0  0  0  0  0  0  0  0
   -1.0696   -3.8556    1.9513 O   0  0  0  0  0  0  0  0  0  0  0  0
   -0.6702   -2.7343    2.6789 C   0  0  0  0  0  0  0  0  0  0  0  0
   -0.8787   -1.5302    1.8079 C   0  0  0  0  0  0  0  0  0  0  0  0
   -0.1197   -1.6561    0.6644 O   0  0  0  0  0  0  0  0  0  0  0  0
   -0.4654   -0.3051    2.5286 C   0  0  0  0  0  0  0  0  0  0  0  0
   -0.3245   -0.4114    3.8895 O   0  0  0  0  0  0  0  0  0  0  0  0
    0.7987    0.1374    1.8355 C   0  0  0  0  0  0  0  0  0  0  0  0
    1.0543   -0.9567    0.8402 C   0  0  0  0  0  0  0  0  0  0  0  0
    1.5189   -0.4636   -0.4178 N   0  0  0  0  0  0  0  0  0  0  0  0
    2.6033    0.3648   -0.3921 C   0  0  0  0  0  0  0  0  0  0  0  0
    3.1611    0.6727    0.7105 O   0  0  0  0  0  0  0  0  0  0  0  0
    3.1267    0.8879   -1.5141 N   0  0  0  0  0  0  0  0  0  0  0  0
    2.5800    0.5984   -2.7081 C   0  0  0  0  0  0  0  0  0  0  0  0
    3.1030    1.1097   -3.7215 O   0  0  0  0  0  0  0  0  0  0  0  0
    1.4812   -0.2400   -2.7457 C   0  0  0  0  0  0  0  0  0  0  0  0
    0.9125   -0.5297   -4.0896 C   0  0  0  0  0  0  0  0  0  0  0  0
    0.9422   -0.7776   -1.5984 C   0  0  0  0  0  0  0  0  0  0  0  0
   -1.3118    0.7489    4.6704 P   0  0  0  0  0  0  0  0  0  0  0  0
   -2.7536    0.9264    3.8275 O   0  0  0  0  0  0  0  0  0  0  0  0
   -1.6094    0.1883    6.0448 O   0  0  0  0  0  0  0  0  0  0  0  0
   -0.4750    2.2021    4.8655 O   0  0  0  0  0  0  0  0  0  0  0  0
   -0.6412    3.0859    3.8142 C   0  0  0  0  0  0  0  0  0  0  0  0
    0.1171    4.3704    4.0865 C   0  0  0  0  0  0  0  0  0  0  0  0
    1.4552    4.0803    4.2294 O   0  0  0  0  0  0  0  0  0  0  0  0
   -0.0070    5.3420    2.9388 C   0  0  0  0  0  0  0  0  0  0  0  0
   -0.5547    4.7427    1.8075 O   0  0  0  0  0  0  0  0  0  0  0  0
    1.3994    5.7967    2.7364 C   0  0  0  0  0  0  0  0  0  0  0  0
    2.2024    5.1691    3.8538 C   0  0  0  0  0  0  0  0  0  0  0  0
    3.4647    4.6431    3.3135 N   0  0  0  0  0  0  0  0  0  0  0  0
    4.1219    5.0420    2.2203 C   0  0  0  0  0  0  0  0  0  0  0  0
    5.2444    4.3282    2.0343 N   0  0  0  0  0  0  0  0  0  0  0  0
    5.3324    3.4309    3.0344 C   0  0  0  0  0  0  0  0  0  0  0  0
    6.2634    2.4507    3.3483 C   0  0  0  0  0  0  0  0  0  0  0  0
    7.4151    2.2355    2.5334 N   0  0  0  0  0  0  0  0  0  0  0  0
    6.0370    1.7139    4.4482 N   0  0  0  0  0  0  0  0  0  0  0  0
    4.9755    1.8891    5.2264 C   0  0  0  0  0  0  0  0  0  0  0  0
    4.0746    2.8479    4.9099 N   0  0  0  0  0  0  0  0  0  0  0  0
    4.2150    3.6344    3.8303 C   0  0  0  0  0  0  0  0  0  0  0  0
   -1.9097    5.5819    1.3027 P   0  0  0  0  0  0  0  0  0  0  0  0
   -1.5019    6.8139    0.1921 O   0  0  0  0  0  0  0  0  0  0  0  0
   -2.5207    6.2964    2.5056 O   0  0  0  0  0  0  0  0  0  0  0  0
   -3.0738    4.5758    0.5993 O   0  0  0  0  0  0  0  0  0  0  0  0
   -2.9634    4.6547   -0.7821 C   0  0  0  0  0  0  0  0  0  0  0  0
   -3.9643    3.7719   -1.4898 C   0  0  0  0  0  0  0  0  0  0  0  0
   -3.8119    3.8846   -2.8392 O   0  0  0  0  0  0  0  0  0  0  0  0
   -3.8569    2.3327   -1.0778 C   0  0  0  0  0  0  0  0  0  0  0  0
   -5.1244    1.7887   -0.8614 O   0  0  0  0  0  0  0  0  0  0  0  0
   -3.2710    1.6859   -2.2944 C   0  0  0  0  0  0  0  0  0  0  0  0
   -3.7062    2.6225   -3.3895 C   0  0  0  0  0  0  0  0  0  0  0  0
   -2.7715    2.6309   -4.4985 N   0  0  0  0  0  0  0  0  0  0  0  0
   -3.2028    2.5046   -5.7747 C   0  0  0  0  0  0  0  0  0  0  0  0
   -4.4366    2.3797   -5.9820 O   0  0  0  0  0  0  0  0  0  0  0  0
   -2.3550    2.5089   -6.8231 N   0  0  0  0  0  0  0  0  0  0  0  0
   -1.0155    2.6396   -6.6709 C   0  0  0  0  0  0  0  0  0  0  0  0
   -0.1499    2.6384   -7.8081 N   0  0  0  0  0  0  0  0  0  0  0  0
   -0.5470    2.7699   -5.3838 C   0  0  0  0  0  0  0  0  0  0  0  0
   -1.4424    2.7625   -4.3195 C   0  0  0  0  0  0  0  0  0  0  0  0
   -5.2507    1.0662    0.6685 P   0  0  0  0  0  0  0  0  0  0  0  0
   -4.1571    0.0522    0.7892 O   0  0  0  0  0  0  0  0  0  0  0  0
   -6.7380    0.2945    0.7463 O   0  0  0  0  0  0  0  0  0  0  0  0
   -5.1298    2.3076    1.8156 O   0  0  0  0  0  0  0  0  0  0  0  0
   -5.8449    2.0137    2.9637 C   0  0  0  0  0  0  0  0  0  0  0  0
   -5.7947    3.1629    3.9137 C   0  0  0  0  0  0  0  0  0  0  0  0
   -6.3699    4.2639    3.2367 O   0  0  0  0  0  0  0  0  0  0  0  0
   -6.7489    3.0300    5.0670 C   0  0  0  0  0  0  0  0  0  0  0  0
   -6.0249    2.5335    6.1732 O   0  0  0  0  0  0  0  0  0  0  0  0
   -7.1522    4.4826    5.3443 C   0  0  0  0  0  0  0  0  0  0  0  0
   -6.3937    5.1911    4.2524 C   0  0  0  0  0  0  0  0  0  0  0  0
   -6.9998    6.4559    3.9014 N   0  0  0  0  0  0  0  0  0  0  0  0
   -7.4601    7.3260    4.8226 C   0  0  0  0  0  0  0  0  0  0  0  0
   -7.9638    8.3979    4.2177 N   0  0  0  0  0  0  0  0  0  0  0  0
   -7.8156    8.1941    2.9021 C   0  0  0  0  0  0  0  0  0  0  0  0
   -8.1702    8.9960    1.8369 C   0  0  0  0  0  0  0  0  0  0  0  0
   -8.7259   10.1161    2.0088 O   0  0  0  0  0  0  0  0  0  0  0  0
   -7.9003    8.5377    0.5984 N   0  0  0  0  0  0  0  0  0  0  0  0
   -7.3033    7.3348    0.4036 C   0  0  0  0  0  0  0  0  0  0  0  0
   -7.0199    6.8541   -0.9049 N   0  0  0  0  0  0  0  0  0  0  0  0
   -6.9659    6.5682    1.4651 N   0  0  0  0  0  0  0  0  0  0  0  0
   -7.2123    6.9788    2.7016 C   0  0  0  0  0  0  0  0  0  0  0  0
    6.5144   -8.7494   -2.9477 H   0  0  0  0  0  0  0  0  0  0  0  0
    4.0918   -9.0259   -2.9264 H   0  0  0  0  0  0  0  0  0  0  0  0
    4.8317   -7.3920   -2.5847 H   0  0  0  0  0  0  0  0  0  0  0  0
    3.9152   -8.2514   -5.3331 H   0  0  0  0  0  0  0  0  0  0  0  0
    2.6596   -6.9217   -2.9527 H   0  0  0  0  0  0  0  0  0  0  0  0
    2.6218   -5.5925   -5.6999 H   0  0  0  0  0  0  0  0  0  0  0  0
    2.1045   -4.8492   -4.0724 H   0  0  0  0  0  0  0  0  0  0  0  0
    4.3442   -5.3351   -3.2257 H   0  0  0  0  0  0  0  0  0  0  0  0
    5.7315    0.3102   -6.4325 H   0  0  0  0  0  0  0  0  0  0  0  0
    6.7098   -0.7281   -7.5900 H   0  0  0  0  0  0  0  0  0  0  0  0
    5.2373   -0.8546   -4.1975 H   0  0  0  0  0  0  0  0  0  0  0  0
    4.4496   -2.9432   -3.1695 H   0  0  0  0  0  0  0  0  0  0  0  0
    1.0232   -5.8586   -1.5927 H   0  0  0  0  0  0  0  0  0  0  0  0
   -0.2513   -6.8988   -0.9653 H   0  0  0  0  0  0  0  0  0  0  0  0
    1.1172   -7.6946    0.8725 H   0  0  0  0  0  0  0  0  0  0  0  0
    0.0816   -5.0797    0.6168 H   0  0  0  0  0  0  0  0  0  0  0  0
    2.3305   -3.9404    1.7125 H   0  0  0  0  0  0  0  0  0  0  0  0
    2.0143   -4.0481   -0.0466 H   0  0  0  0  0  0  0  0  0  0  0  0
    4.0232   -5.1647   -0.0489 H   0  0  0  0  0  0  0  0  0  0  0  0
    3.1055   -4.6653    3.4533 H   0  0  0  0  0  0  0  0  0  0  0  0
    7.3653   -9.8639    0.4134 H   0  0  0  0  0  0  0  0  0  0  0  0
    8.4611   -8.4101    0.1061 H   0  0  0  0  0  0  0  0  0  0  0  0
    5.5502   -7.4544    0.0822 H   0  0  0  0  0  0  0  0  0  0  0  0
    0.4229   -2.8037    2.9073 H   0  0  0  0  0  0  0  0  0  0  0  0
   -1.2784   -2.6940    3.6041 H   0  0  0  0  0  0  0  0  0  0  0  0
   -1.9520   -1.4767    1.4841 H   0  0  0  0  0  0  0  0  0  0  0  0
   -1.2151    0.4785    2.3343 H   0  0  0  0  0  0  0  0  0  0  0  0
    0.6662    1.0806    1.2717 H   0  0  0  0  0  0  0  0  0  0  0  0
    1.6459    0.3091    2.5207 H   0  0  0  0  0  0  0  0  0  0  0  0
    1.7919   -1.6423    1.3041 H   0  0  0  0  0  0  0  0  0  0  0  0
    3.9532    1.5141   -1.4427 H   0  0  0  0  0  0  0  0  0  0  0  0
   -0.1328   -0.8775   -4.0210 H   0  0  0  0  0  0  0  0  0  0  0  0
    1.5393   -1.3029   -4.5942 H   0  0  0  0  0  0  0  0  0  0  0  0
    0.9811    0.4087   -4.6958 H   0  0  0  0  0  0  0  0  0  0  0  0
    0.0914   -1.4273   -1.6294 H   0  0  0  0  0  0  0  0  0  0  0  0
   -1.7222    3.3736    3.7918 H   0  0  0  0  0  0  0  0  0  0  0  0
   -0.4209    2.6766    2.8277 H   0  0  0  0  0  0  0  0  0  0  0  0
   -0.2321    4.8632    5.0151 H   0  0  0  0  0  0  0  0  0  0  0  0
   -0.6455    6.2201    3.1807 H   0  0  0  0  0  0  0  0  0  0  0  0
    1.8327    5.4934    1.7702 H   0  0  0  0  0  0  0  0  0  0  0  0
    1.4785    6.9118    2.8881 H   0  0  0  0  0  0  0  0  0  0  0  0
    2.3794    5.8706    4.6868 H   0  0  0  0  0  0  0  0  0  0  0  0
    3.8253    5.8428    1.5322 H   0  0  0  0  0  0  0  0  0  0  0  0
    7.3303    2.3113    1.4906 H   0  0  0  0  0  0  0  0  0  0  0  0
    8.2954    2.0110    3.0073 H   0  0  0  0  0  0  0  0  0  0  0  0
    4.7888    1.2967    6.1158 H   0  0  0  0  0  0  0  0  0  0  0  0
   -1.9378    4.4177   -1.1331 H   0  0  0  0  0  0  0  0  0  0  0  0
   -3.1609    5.7113   -1.0544 H   0  0  0  0  0  0  0  0  0  0  0  0
   -4.9864    4.1291   -1.2002 H   0  0  0  0  0  0  0  0  0  0  0  0
   -3.1861    2.1781   -0.2124 H   0  0  0  0  0  0  0  0  0  0  0  0
   -3.7679    0.6945   -2.5046 H   0  0  0  0  0  0  0  0  0  0  0  0
   -2.1789    1.5188   -2.2518 H   0  0  0  0  0  0  0  0  0  0  0  0
   -4.7031    2.3336   -3.7818 H   0  0  0  0  0  0  0  0  0  0  0  0
   -0.5762    2.8042   -8.7371 H   0  0  0  0  0  0  0  0  0  0  0  0
    0.8646    2.4758   -7.6906 H   0  0  0  0  0  0  0  0  0  0  0  0
    0.5202    2.8744   -5.2521 H   0  0  0  0  0  0  0  0  0  0  0  0
   -1.0528    2.8671   -3.3050 H   0  0  0  0  0  0  0  0  0  0  0  0
   -5.5251    1.0488    3.4246 H   0  0  0  0  0  0  0  0  0  0  0  0
   -6.9022    1.8614    2.6731 H   0  0  0  0  0  0  0  0  0  0  0  0
   -4.8085    3.4036    4.3092 H   0  0  0  0  0  0  0  0  0  0  0  0
   -7.6170    2.3915    4.8436 H   0  0  0  0  0  0  0  0  0  0  0  0
   -5.0569    2.6723    6.0207 H   0  0  0  0  0  0  0  0  0  0  0  0
   -6.8548    4.7634    6.3595 H   0  0  0  0  0  0  0  0  0  0  0  0
   -8.2549    4.5687    5.2280 H   0  0  0  0  0  0  0  0  0  0  0  0
   -5.3502    5.3501    4.6318 H   0  0  0  0  0  0  0  0  0  0  0  0
   -7.4502    7.2235    5.9163 H   0  0  0  0  0  0  0  0  0  0  0  0
   -7.7429    6.6803   -1.6175 H   0  0  0  0  0  0  0  0  0  0  0  0
   -5.9943    6.6780   -1.1167 H   0  0  0  0  0  0  0  0  0  0  0  0
   -6.5164    5.6623    1.3174 H   0  0  0  0  0  0  0  0  0  0  0  0
  1  2  1  0
  1121  1  0
  2  3  1  0
  2122  1  0
  2123  1  0
  3  4  1  0
  3  5  1  0
  3124  1  0
  4  8  1  0
  5  7  1  0
  5  6  1  0
  5125  1  0
  6 17  1  0
  7  8  1  0
  7126  1  0
  7127  1  0
  8  9  1  0
  8128  1  0
  9 16  1  0
  9 10  1  0
 10 12  1  0
 10 11  2  0
 12 13  2  0
 13 15  1  0
 13 14  1  0
 14129  1  0
 14130  1  0
 15 16  2  0
 15131  1  0
 16132  1  0
 17 20  1  0
 17 19  2  0
 17 18  1  0
 20 21  1  0
 21 22  1  0
 21133  1  0
 21134  1  0
 22 24  1  0
 22 23  1  0
 22135  1  0
 23 27  1  0
 24 25  1  0
 24 26  1  0
 24136  1  0
 25 39  1  0
 26 27  1  0
 26137  1  0
 26138  1  0
 27 28  1  0
 27139  1  0
 28 38  1  0
 28 29  1  0
 29 30  2  0
 29140  1  0
 30 31  1  0
 31 32  1  0
 31 38  2  0
 32 33  2  0
 32 34  1  0
 34 35  2  0
 35 36  1  0
 35 37  1  0
 36141  1  0
 36142  1  0
 37 38  1  0
 37143  1  0
 39 41  2  0
 39 42  1  0
 39 40  1  0
 42 43  1  0
 43 44  1  0
 43144  1  0
 43145  1  0
 44 46  1  0
 44 45  1  0
 44146  1  0
 45 49  1  0
 46 48  1  0
 46 47  1  0
 46147  1  0
 47 59  1  0
 48 49  1  0
 48148  1  0
 48149  1  0
 49 50  1  0
 49150  1  0
 50 51  1  0
 50 58  1  0
 51 53  1  0
 51 52  2  0
 53 54  1  0
 53151  1  0
 54 55  2  0
 54 56  1  0
 56 57  1  0
 56 58  2  0
 57152  1  0
 57153  1  0
 57154  1  0
 58155  1  0
 59 61  2  0
 59 62  1  0
 59 60  1  0
 62 63  1  0
 63 64  1  0
 63156  1  0
 63157  1  0
 64 66  1  0
 64 65  1  0
 64158  1  0
 65 69  1  0
 66 68  1  0
 66 67  1  0
 66159  1  0
 67 80  1  0
 68 69  1  0
 68160  1  0
 68161  1  0
 69 70  1  0
 69162  1  0
 70 79  1  0
 70 71  1  0
 71 72  2  0
 71163  1  0
 72 73  1  0
 73 79  2  0
 73 74  1  0
 74 76  2  0
 74 75  1  0
 75164  1  0
 75165  1  0
 76 77  1  0
 77 78  2  0
 77166  1  0
 78 79  1  0
 80 83  1  0
 80 82  2  0
 80 81  1  0
 83 84  1  0
 84 85  1  0
 84167  1  0
 84168  1  0
 85 87  1  0
 85 86  1  0
 85169  1  0
 86 90  1  0
 87 88  1  0
 87 89  1  0
 87170  1  0
 88 99  1  0
 89 90  1  0
 89171  1  0
 89172  1  0
 90 91  1  0
 90173  1  0
 91 98  1  0
 91 92  1  0
 92 93  2  0
 92 94  1  0
 94 95  2  0
 95 97  1  0
 95 96  1  0
 96174  1  0
 96175  1  0
 97 98  2  0
 97176  1  0
 98177  1  0
 99100  2  0
 99101  1  0
 99102  1  0
102103  1  0
103104  1  0
103178  1  0
103179  1  0
104105  1  0
104106  1  0
104180  1  0
105109  1  0
106108  1  0
106107  1  0
106181  1  0
107182  1  0
108109  1  0
108183  1  0
108184  1  0
109110  1  0
109185  1  0
110111  1  0
110120  1  0
111112  2  0
111186  1  0
112113  1  0
113114  1  0
113120  2  0
114115  2  0
114116  1  0
116117  2  0
117118  1  0
117119  1  0
118187  1  0
118188  1  0
119120  1  0
119189  1  0
M  CHG  5  18  -1  40  -1  60  -1  81  -1 101  -1
M  END
$$$$
DNA (5'-D(*CP*GP*TP*AP*CP*G)-3')
     RDKit          3D

189203  0  0  0  0  0  0  0  0999 V2000
   -5.3820   -5.2763    2.1809 O   0  0  0  0  0  0  0  0  0  0  0  0
   -5.4455   -4.8627    0.8299 C   0  0  0  0  0  0  0  0  0  0  0  0
   -5.5607   -6.0667   -0.0591 C   0  0  0  0  0  0  0  0  0  0  0  0
   -5.6243   -5.7314   -1.4088 O   0  0  0  0  0  0  0  0  0  0  0  0
   -4.3949   -7.0262    0.1251 C   0  0  0  0  0  0  0  0  0  0  0  0
   -3.2069   -6.3512    0.2232 O   0  0  0  0  0  0  0  0  0  0  0  0
   -4.4263   -7.5948   -1.3128 C   0  0  0  0  0  0  0  0  0  0  0  0
   -4.4573   -6.2400   -1.9823 C   0  0  0  0  0  0  0  0  0  0  0  0
   -4.3965   -6.2414   -3.3880 N   0  0  0  0  0  0  0  0  0  0  0  0
   -4.6865   -7.3147   -4.1778 C   0  0  0  0  0  0  0  0  0  0  0  0
   -5.0357   -8.3580   -3.6109 O   0  0  0  0  0  0  0  0  0  0  0  0
   -4.6033   -7.2620   -5.5017 N   0  0  0  0  0  0  0  0  0  0  0  0
   -4.2295   -6.1570   -6.1733 C   0  0  0  0  0  0  0  0  0  0  0  0
   -4.1511   -6.1516   -7.5945 N   0  0  0  0  0  0  0  0  0  0  0  0
   -3.9266   -5.0461   -5.4143 C   0  0  0  0  0  0  0  0  0  0  0  0
   -4.0149   -5.1042   -4.0261 C   0  0  0  0  0  0  0  0  0  0  0  0
   -2.1579   -6.9123    1.4120 P   0  0  0  0  0  0  0  0  0  0  0  0
   -2.3164   -5.9733    2.8122 O   0  0  0  0  0  0  0  0  0  0  0  0
   -2.4104   -8.3505    1.8013 O   0  0  0  0  0  0  0  0  0  0  0  0
   -0.5384   -6.8835    0.8335 O   0  0  0  0  0  0  0  0  0  0  0  0
   -0.3700   -5.7751    0.0406 C   0  0  0  0  0  0  0  0  0  0  0  0
    0.9092   -5.6952   -0.7227 C   0  0  0  0  0  0  0  0  0  0  0  0
    0.9986   -4.5432   -1.4984 O   0  0  0  0  0  0  0  0  0  0  0  0
    2.1524   -5.5878    0.1075 C   0  0  0  0  0  0  0  0  0  0  0  0
    2.1430   -4.3995    0.8348 O   0  0  0  0  0  0  0  0  0  0  0  0
    3.1658   -5.3194   -1.0331 C   0  0  0  0  0  0  0  0  0  0  0  0
    2.3014   -4.4743   -1.9381 C   0  0  0  0  0  0  0  0  0  0  0  0
    2.4340   -4.7835   -3.3376 N   0  0  0  0  0  0  0  0  0  0  0  0
    1.5865   -5.5356   -4.0779 C   0  0  0  0  0  0  0  0  0  0  0  0
    2.0411   -5.5963   -5.3482 N   0  0  0  0  0  0  0  0  0  0  0  0
    3.1840   -4.8864   -5.4442 C   0  0  0  0  0  0  0  0  0  0  0  0
    4.0221   -4.6415   -6.5092 C   0  0  0  0  0  0  0  0  0  0  0  0
    3.7963   -5.1057   -7.6565 O   0  0  0  0  0  0  0  0  0  0  0  0
    5.1085   -3.8705   -6.2563 N   0  0  0  0  0  0  0  0  0  0  0  0
    5.3184   -3.3930   -5.0256 C   0  0  0  0  0  0  0  0  0  0  0  0
    6.4685   -2.5899   -4.8059 N   0  0  0  0  0  0  0  0  0  0  0  0
    4.5089   -3.6235   -3.9766 N   0  0  0  0  0  0  0  0  0  0  0  0
    3.4148   -4.3837   -4.1720 C   0  0  0  0  0  0  0  0  0  0  0  0
    2.6646   -4.5517    2.4094 P   0  0  0  0  0  0  0  0  0  0  0  0
    4.1251   -3.7122    2.6748 O   0  0  0  0  0  0  0  0  0  0  0  0
    3.0058   -6.0241    2.6260 O   0  0  0  0  0  0  0  0  0  0  0  0
    1.5275   -4.1205    3.5479 O   0  0  0  0  0  0  0  0  0  0  0  0
    1.0221   -2.8202    3.3751 C   0  0  0  0  0  0  0  0  0  0  0  0
    0.1493   -2.4741    4.5606 C   0  0  0  0  0  0  0  0  0  0  0  0
    0.9084   -2.5367    5.7294 O   0  0  0  0  0  0  0  0  0  0  0  0
   -0.5060   -1.1445    4.4919 C   0  0  0  0  0  0  0  0  0  0  0  0
   -1.8653   -1.2725    4.7324 O   0  0  0  0  0  0  0  0  0  0  0  0
    0.1682   -0.4229    5.6796 C   0  0  0  0  0  0  0  0  0  0  0  0
    1.3904   -1.2567    5.8789 C   0  0  0  0  0  0  0  0  0  0  0  0
    2.0324   -1.0279    7.1556 N   0  0  0  0  0  0  0  0  0  0  0  0
    1.4847   -1.4323    8.2913 C   0  0  0  0  0  0  0  0  0  0  0  0
    0.3746   -2.0371    8.3051 O   0  0  0  0  0  0  0  0  0  0  0  0
    2.0543   -1.2371    9.5064 N   0  0  0  0  0  0  0  0  0  0  0  0
    3.2540   -0.5964    9.6274 C   0  0  0  0  0  0  0  0  0  0  0  0
    3.7666   -0.4251   10.7634 O   0  0  0  0  0  0  0  0  0  0  0  0
    3.8452   -0.1652    8.4608 C   0  0  0  0  0  0  0  0  0  0  0  0
    5.1647    0.5427    8.5455 C   0  0  0  0  0  0  0  0  0  0  0  0
    3.2249   -0.3866    7.2292 C   0  0  0  0  0  0  0  0  0  0  0  0
   -2.8346   -0.3434    3.7523 P   0  0  0  0  0  0  0  0  0  0  0  0
   -4.4082   -1.0167    3.8318 O   0  0  0  0  0  0  0  0  0  0  0  0
   -2.9946    1.0740    4.2785 O   0  0  0  0  0  0  0  0  0  0  0  0
   -2.3785   -0.3341    2.1318 O   0  0  0  0  0  0  0  0  0  0  0  0
   -3.2410   -1.1058    1.4047 C   0  0  0  0  0  0  0  0  0  0  0  0
   -3.2884   -0.8559   -0.0592 C   0  0  0  0  0  0  0  0  0  0  0  0
   -2.1177   -1.0228   -0.7506 O   0  0  0  0  0  0  0  0  0  0  0  0
   -3.6857    0.5477   -0.4216 C   0  0  0  0  0  0  0  0  0  0  0  0
   -3.0036    1.4237    0.3868 O   0  0  0  0  0  0  0  0  0  0  0  0
   -3.1849    0.6276   -1.8719 C   0  0  0  0  0  0  0  0  0  0  0  0
   -2.5110   -0.6914   -2.0555 C   0  0  0  0  0  0  0  0  0  0  0  0
   -1.4011   -0.6335   -2.9813 N   0  0  0  0  0  0  0  0  0  0  0  0
   -0.3024   -1.4180   -2.9741 C   0  0  0  0  0  0  0  0  0  0  0  0
    0.5279   -1.1039   -3.9664 N   0  0  0  0  0  0  0  0  0  0  0  0
   -0.0330   -0.0928   -4.6424 C   0  0  0  0  0  0  0  0  0  0  0  0
    0.3915    0.6068   -5.7426 C   0  0  0  0  0  0  0  0  0  0  0  0
    1.6000    0.3751   -6.4298 N   0  0  0  0  0  0  0  0  0  0  0  0
   -0.4027    1.5978   -6.2140 N   0  0  0  0  0  0  0  0  0  0  0  0
   -1.5718    1.8750   -5.6079 C   0  0  0  0  0  0  0  0  0  0  0  0
   -1.9759    1.1678   -4.5152 N   0  0  0  0  0  0  0  0  0  0  0  0
   -1.2298    0.1932   -4.0247 C   0  0  0  0  0  0  0  0  0  0  0  0
   -4.1029    2.5053    1.1154 P   0  0  0  0  0  0  0  0  0  0  0  0
   -5.1600    1.7318    2.1650 O   0  0  0  0  0  0  0  0  0  0  0  0
   -4.9117    3.1092    0.0004 O   0  0  0  0  0  0  0  0  0  0  0  0
   -3.1453    3.6686    1.8944 O   0  0  0  0  0  0  0  0  0  0  0  0
   -3.1905    4.8211    1.1096 C   0  0  0  0  0  0  0  0  0  0  0  0
   -2.0454    5.7581    1.4486 C   0  0  0  0  0  0  0  0  0  0  0  0
   -2.1372    6.8754    0.6555 O   0  0  0  0  0  0  0  0  0  0  0  0
   -0.7179    5.1468    0.9723 C   0  0  0  0  0  0  0  0  0  0  0  0
   -0.6390    3.8127    1.3050 O   0  0  0  0  0  0  0  0  0  0  0  0
   -0.8856    5.3279   -0.5446 C   0  0  0  0  0  0  0  0  0  0  0  0
   -1.7475    6.5441   -0.6173 C   0  0  0  0  0  0  0  0  0  0  0  0
   -2.8876    6.4093   -1.5110 N   0  0  0  0  0  0  0  0  0  0  0  0
   -3.9919    7.1258   -1.1629 C   0  0  0  0  0  0  0  0  0  0  0  0
   -4.0106    7.8525   -0.1344 O   0  0  0  0  0  0  0  0  0  0  0  0
   -5.1221    7.0996   -1.8947 N   0  0  0  0  0  0  0  0  0  0  0  0
   -5.1647    6.3317   -3.0211 C   0  0  0  0  0  0  0  0  0  0  0  0
   -6.3694    6.3424   -3.7445 N   0  0  0  0  0  0  0  0  0  0  0  0
   -4.0500    5.5971   -3.3886 C   0  0  0  0  0  0  0  0  0  0  0  0
   -2.8910    5.6471   -2.6052 C   0  0  0  0  0  0  0  0  0  0  0  0
    0.7989    3.5450    2.1567 P   0  0  0  0  0  0  0  0  0  0  0  0
    1.1910    4.7271    3.0110 O   0  0  0  0  0  0  0  0  0  0  0  0
    0.6151    2.2223    3.2251 O   0  0  0  0  0  0  0  0  0  0  0  0
    1.9671    3.1671    0.9958 O   0  0  0  0  0  0  0  0  0  0  0  0
    2.8938    2.2386    1.4152 C   0  0  0  0  0  0  0  0  0  0  0  0
    3.8111    1.8931    0.2576 C   0  0  0  0  0  0  0  0  0  0  0  0
    4.4777    3.0209   -0.2059 O   0  0  0  0  0  0  0  0  0  0  0  0
    3.1156    1.2521   -0.8971 C   0  0  0  0  0  0  0  0  0  0  0  0
    3.4128   -0.0886   -1.0550 O   0  0  0  0  0  0  0  0  0  0  0  0
    3.6245    2.0816   -2.0838 C   0  0  0  0  0  0  0  0  0  0  0  0
    3.8150    3.4214   -1.3611 C   0  0  0  0  0  0  0  0  0  0  0  0
    4.5710    4.3273   -2.1598 N   0  0  0  0  0  0  0  0  0  0  0  0
    4.6287    4.3902   -3.5027 C   0  0  0  0  0  0  0  0  0  0  0  0
    5.4604    5.3897   -3.8388 N   0  0  0  0  0  0  0  0  0  0  0  0
    5.9204    5.9494   -2.7220 C   0  0  0  0  0  0  0  0  0  0  0  0
    6.7910    6.9995   -2.4143 C   0  0  0  0  0  0  0  0  0  0  0  0
    7.3164    7.6272   -3.3857 O   0  0  0  0  0  0  0  0  0  0  0  0
    7.0633    7.3335   -1.1302 N   0  0  0  0  0  0  0  0  0  0  0  0
    6.4912    6.6491   -0.0977 C   0  0  0  0  0  0  0  0  0  0  0  0
    6.7604    6.9805    1.2623 N   0  0  0  0  0  0  0  0  0  0  0  0
    5.6522    5.6372   -0.3920 N   0  0  0  0  0  0  0  0  0  0  0  0
    5.3706    5.2924   -1.6522 C   0  0  0  0  0  0  0  0  0  0  0  0
   -5.7985   -4.6129    2.7843 H   0  0  0  0  0  0  0  0  0  0  0  0
   -6.4020   -4.3042    0.7549 H   0  0  0  0  0  0  0  0  0  0  0  0
   -4.6059   -4.2153    0.5800 H   0  0  0  0  0  0  0  0  0  0  0  0
   -6.4866   -6.6232    0.1847 H   0  0  0  0  0  0  0  0  0  0  0  0
   -4.5630   -7.8139    0.8559 H   0  0  0  0  0  0  0  0  0  0  0  0
   -5.4233   -8.1102   -1.3251 H   0  0  0  0  0  0  0  0  0  0  0  0
   -3.5758   -8.2188   -1.5437 H   0  0  0  0  0  0  0  0  0  0  0  0
   -3.6453   -5.6205   -1.4978 H   0  0  0  0  0  0  0  0  0  0  0  0
   -4.9025   -6.5105   -8.2221 H   0  0  0  0  0  0  0  0  0  0  0  0
   -3.2968   -5.7696   -8.1008 H   0  0  0  0  0  0  0  0  0  0  0  0
   -3.6184   -4.1260   -5.9178 H   0  0  0  0  0  0  0  0  0  0  0  0
   -3.7621   -4.1954   -3.5064 H   0  0  0  0  0  0  0  0  0  0  0  0
   -0.5545   -4.8790    0.6476 H   0  0  0  0  0  0  0  0  0  0  0  0
   -1.1876   -5.8333   -0.7371 H   0  0  0  0  0  0  0  0  0  0  0  0
    1.0157   -6.5412   -1.4595 H   0  0  0  0  0  0  0  0  0  0  0  0
    2.4369   -6.4726    0.6702 H   0  0  0  0  0  0  0  0  0  0  0  0
    4.0487   -4.8087   -0.6456 H   0  0  0  0  0  0  0  0  0  0  0  0
    3.3519   -6.3086   -1.4955 H   0  0  0  0  0  0  0  0  0  0  0  0
    2.7017   -3.4193   -1.8132 H   0  0  0  0  0  0  0  0  0  0  0  0
    0.6779   -6.0380   -3.7784 H   0  0  0  0  0  0  0  0  0  0  0  0
    7.3885   -2.8188   -5.2549 H   0  0  0  0  0  0  0  0  0  0  0  0
    6.3541   -1.7562   -4.1723 H   0  0  0  0  0  0  0  0  0  0  0  0
    4.6954   -3.2402   -3.0248 H   0  0  0  0  0  0  0  0  0  0  0  0
    0.5143   -2.6788    2.4170 H   0  0  0  0  0  0  0  0  0  0  0  0
    1.9075   -2.1600    3.3658 H   0  0  0  0  0  0  0  0  0  0  0  0
   -0.6186   -3.2782    4.6655 H   0  0  0  0  0  0  0  0  0  0  0  0
   -0.3134   -0.5438    3.5824 H   0  0  0  0  0  0  0  0  0  0  0  0
    0.4184    0.6164    5.4333 H   0  0  0  0  0  0  0  0  0  0  0  0
   -0.5489   -0.4768    6.5125 H   0  0  0  0  0  0  0  0  0  0  0  0
    2.0826   -1.0362    5.0467 H   0  0  0  0  0  0  0  0  0  0  0  0
    1.6021   -1.5671   10.3920 H   0  0  0  0  0  0  0  0  0  0  0  0
    5.0628    1.5211    9.0533 H   0  0  0  0  0  0  0  0  0  0  0  0
    5.5129    0.7060    7.5093 H   0  0  0  0  0  0  0  0  0  0  0  0
    5.9428   -0.0942    9.0328 H   0  0  0  0  0  0  0  0  0  0  0  0
    3.7320   -0.0260    6.3424 H   0  0  0  0  0  0  0  0  0  0  0  0
   -4.2603   -0.9343    1.8036 H   0  0  0  0  0  0  0  0  0  0  0  0
   -3.0515   -2.2099    1.5300 H   0  0  0  0  0  0  0  0  0  0  0  0
   -4.0263   -1.5633   -0.4926 H   0  0  0  0  0  0  0  0  0  0  0  0
   -4.7843    0.6985   -0.3934 H   0  0  0  0  0  0  0  0  0  0  0  0
   -2.4859    1.4874   -1.9358 H   0  0  0  0  0  0  0  0  0  0  0  0
   -4.0659    0.7556   -2.5315 H   0  0  0  0  0  0  0  0  0  0  0  0
   -3.2604   -1.4347   -2.3856 H   0  0  0  0  0  0  0  0  0  0  0  0
   -0.1655   -2.1886   -2.2308 H   0  0  0  0  0  0  0  0  0  0  0  0
    1.5962    0.2856   -7.4818 H   0  0  0  0  0  0  0  0  0  0  0  0
    2.5379    0.2792   -5.9849 H   0  0  0  0  0  0  0  0  0  0  0  0
   -2.1636    2.6733   -6.0251 H   0  0  0  0  0  0  0  0  0  0  0  0
   -4.1263    5.3467    1.3567 H   0  0  0  0  0  0  0  0  0  0  0  0
   -3.1769    4.5579    0.0495 H   0  0  0  0  0  0  0  0  0  0  0  0
   -2.0413    6.0025    2.5154 H   0  0  0  0  0  0  0  0  0  0  0  0
    0.0979    5.7685    1.3346 H   0  0  0  0  0  0  0  0  0  0  0  0
   -1.3786    4.4155   -0.9362 H   0  0  0  0  0  0  0  0  0  0  0  0
    0.0887    5.4176   -1.0547 H   0  0  0  0  0  0  0  0  0  0  0  0
   -1.0967    7.3765   -1.0045 H   0  0  0  0  0  0  0  0  0  0  0  0
   -6.3419    6.6158   -4.7699 H   0  0  0  0  0  0  0  0  0  0  0  0
   -7.3010    6.0953   -3.3289 H   0  0  0  0  0  0  0  0  0  0  0  0
   -4.0883    4.9822   -4.2909 H   0  0  0  0  0  0  0  0  0  0  0  0
   -2.0070    5.0843   -2.8681 H   0  0  0  0  0  0  0  0  0  0  0  0
    2.4741    1.3025    1.8077 H   0  0  0  0  0  0  0  0  0  0  0  0
    3.5400    2.6736    2.1981 H   0  0  0  0  0  0  0  0  0  0  0  0
    4.5817    1.1933    0.6407 H   0  0  0  0  0  0  0  0  0  0  0  0
    2.0416    1.4620   -0.8375 H   0  0  0  0  0  0  0  0  0  0  0  0
    4.2321   -0.2386   -1.5949 H   0  0  0  0  0  0  0  0  0  0  0  0
    4.5963    1.6684   -2.3898 H   0  0  0  0  0  0  0  0  0  0  0  0
    2.8759    2.1565   -2.8914 H   0  0  0  0  0  0  0  0  0  0  0  0
    2.7859    3.7576   -1.1067 H   0  0  0  0  0  0  0  0  0  0  0  0
    4.0647    3.7076   -4.1334 H   0  0  0  0  0  0  0  0  0  0  0  0
    6.0437    6.7865    1.9991 H   0  0  0  0  0  0  0  0  0  0  0  0
    7.6502    7.4119    1.5574 H   0  0  0  0  0  0  0  0  0  0  0  0
    5.2344    5.1375    0.4264 H   0  0  0  0  0  0  0  0  0  0  0  0
  1  2  1  0
  1121  1  0
  2  3  1  0
  2122  1  0
  2123  1  0
  3  4  1  0
  3  5  1  0
  3124  1  0
  4  8  1  0
  5  7  1  0
  5  6  1  0
  5125  1  0
  6 17  1  0
  7  8  1  0
  7126  1  0
  7127  1  0
  8  9  1  0
  8128  1  0
  9 16  1  0
  9 10  1  0
 10 12  1  0
 10 11  2  0
 12 13  2  0
 13 15  1  0
 13 14  1  0
 14129  1  0
 14130  1  0
 15 16  2  0
 15131  1  0
 16132  1  0
 17 20  1  0
 17 19  2  0
 17 18  1  0
 20 21  1  0
 21 22  1  0
 21133  1  0
 21134  1  0
 22 24  1  0
 22 23  1  0
 22135  1  0
 23 27  1  0
 24 25  1  0
 24 26  1  0
 24136  1  0
 25 39  1  0
 26 27  1  0
 26137  1  0
 26138  1  0
 27 28  1  0
 27139  1  0
 28 38  1  0
 28 29  1  0
 29 30  2  0
 29140  1  0
 30 31  1  0
 31 32  1  0
 31 38  2  0
 32 33  2  0
 32 34  1  0
 34 35  2  0
 35 36  1  0
 35 37  1  0
 36141  1  0
 36142  1  0
 37 38  1  0
 37143  1  0
 39 41  2  0
 39 42  1  0
 39 40  1  0
 42 43  1  0
 43 44  1  0
 43144  1  0
 43145  1  0
 44 46  1  0
 44 45  1  0
 44146  1  0
 45 49  1  0
 46 48  1  0
 46 47  1  0
 46147  1  0
 47 59  1  0
 48 49  1  0
 48148  1  0
 48149  1  0
 49 50  1  0
 49150  1  0
 50 51  1  0
 50 58  1  0
 51 53  1  0
 51 52  2  0
 53 54  1  0
 53151  1  0
 54 55  2  0
 54 56  1  0
 56 57  1  0
 56 58  2  0
 57152  1  0
 57153  1  0
 57154  1  0
 58155  1  0
 59 61  2  0
 59 62  1  0
 59 60  1  0
 62 63  1  0
 63 64  1  0
 63156  1  0
 63157  1  0
 64 66  1  0
 64 65  1  0
 64158  1  0
 65 69  1  0
 66 68  1  0
 66 67  1  0
 66159  1  0
 67 80  1  0
 68 69  1  0
 68160  1  0
 68161  1  0
 69 70  1  0
 69162  1  0
 70 79  1  0
 70 71  1  0
 71 72  2  0
 71163  1  0
 72 73  1  0
 73 79  2  0
 73 74  1  0
 74 76  2  0
 74 75  1  0
 75164  1  0
 75165  1  0
 76 77  1  0
 77 78  2  0
 77166  1  0
 78 79  1  0
 80 83  1  0
 80 82  2  0
 80 81  1  0
 83 84  1  0
 84 85  1  0
 84167  1  0
 84168  1  0
 85 87  1  0
 85 86  1  0
 85169  1  0
 86 90  1  0
 87 88  1  0
 87 89  1  0
 87170  1  0
 88 99  1  0
 89 90  1  0
 89171  1  0
 89172  1  0
 90 91  1  0
 90173  1  0
 91 98  1  0
 91 92  1  0
 92 93  2  0
 92 94  1  0
 94 95  2  0
 95 97  1  0
 95 96  1  0
 96174  1  0
 96175  1  0
 97 98  2  0
 97176  1  0
 98177  1  0
 99100  2  0
 99101  1  0
 99102  1  0
102103  1  0
103104  1  0
103178  1  0
103179  1  0
104105  1  0
104106  1  0
104180  1  0
105109  1  0
106108  1  0
106107  1  0
106181  1  0
107182  1  0
108109  1  0
108183  1  0
108184  1  0
109110  1  0
109185  1  0
110111  1  0
110120  1  0
111112  2  0
111186  1  0
112113  1  0
113114  1  0
113120  2  0
114115  2  0
114116  1  0
116117  2  0
117118  1  0
117119  1  0
118187  1  0
118188  1  0
119120  1  0
119189  1  0
M  CHG  5  18  -1  40  -1  60  -1  81  -1 101  -1
M  END
$$$$
DNA (5'-D(*CP*GP*TP*AP*CP*G)-3')
     RDKit          3D

189203  0  0  0  0  0  0  0  0999 V2000
    2.4785   -0.6837    7.5585 O   0  0  0  0  0  0  0  0  0  0  0  0
    2.5012   -1.6606    6.5572 C   0  0  0  0  0  0  0  0  0  0  0  0
    3.3255   -1.2142    5.3697 C   0  0  0  0  0  0  0  0  0  0  0  0
    4.6302   -0.9691    5.7663 O   0  0  0  0  0  0  0  0  0  0  0  0
    2.8904    0.1062    4.8043 C   0  0  0  0  0  0  0  0  0  0  0  0
    1.7843    0.0587    3.9936 O   0  0  0  0  0  0  0  0  0  0  0  0
    4.1391    0.4755    3.9898 C   0  0  0  0  0  0  0  0  0  0  0  0
    5.2161   -0.0893    4.8922 C   0  0  0  0  0  0  0  0  0  0  0  0
    5.7621    1.0762    5.6071 N   0  0  0  0  0  0  0  0  0  0  0  0
    6.3454    2.0676    4.9105 C   0  0  0  0  0  0  0  0  0  0  0  0
    6.4487    2.0411    3.6446 O   0  0  0  0  0  0  0  0  0  0  0  0
    6.8347    3.1238    5.5953 N   0  0  0  0  0  0  0  0  0  0  0  0
    6.7532    3.2065    6.9411 C   0  0  0  0  0  0  0  0  0  0  0  0
    7.2788    4.3392    7.6601 N   0  0  0  0  0  0  0  0  0  0  0  0
    6.1506    2.1830    7.6655 C   0  0  0  0  0  0  0  0  0  0  0  0
    5.6520    1.1047    6.9570 C   0  0  0  0  0  0  0  0  0  0  0  0
    0.6507    1.1794    4.5510 P   0  0  0  0  0  0  0  0  0  0  0  0
    0.7119    2.6053    3.6359 O   0  0  0  0  0  0  0  0  0  0  0  0
    1.0087    1.5556    5.9671 O   0  0  0  0  0  0  0  0  0  0  0  0
   -0.9197    0.5379    4.5978 O   0  0  0  0  0  0  0  0  0  0  0  0
   -1.7275    1.3876    3.8858 C   0  0  0  0  0  0  0  0  0  0  0  0
   -3.1776    1.0226    3.8551 C   0  0  0  0  0  0  0  0  0  0  0  0
   -3.6979    0.9931    5.1252 O   0  0  0  0  0  0  0  0  0  0  0  0
   -3.4326   -0.3639    3.3422 C   0  0  0  0  0  0  0  0  0  0  0  0
   -4.8093   -0.4737    3.1496 O   0  0  0  0  0  0  0  0  0  0  0  0
   -3.1016   -1.1916    4.5903 C   0  0  0  0  0  0  0  0  0  0  0  0
   -3.5610   -0.2616    5.6628 C   0  0  0  0  0  0  0  0  0  0  0  0
   -2.7863   -0.2897    6.8702 N   0  0  0  0  0  0  0  0  0  0  0  0
   -2.3510    0.8128    7.5067 C   0  0  0  0  0  0  0  0  0  0  0  0
   -1.6478    0.4469    8.6169 N   0  0  0  0  0  0  0  0  0  0  0  0
   -1.6461   -0.9051    8.6709 C   0  0  0  0  0  0  0  0  0  0  0  0
   -1.0827   -1.7629    9.5822 C   0  0  0  0  0  0  0  0  0  0  0  0
   -0.4339   -1.3243   10.5767 O   0  0  0  0  0  0  0  0  0  0  0  0
   -1.2512   -3.0968    9.3705 N   0  0  0  0  0  0  0  0  0  0  0  0
   -1.9470   -3.5362    8.3025 C   0  0  0  0  0  0  0  0  0  0  0  0
   -2.0756   -4.9497    8.1564 N   0  0  0  0  0  0  0  0  0  0  0  0
   -2.5014   -2.6773    7.4053 N   0  0  0  0  0  0  0  0  0  0  0  0
   -2.3676   -1.3470    7.5630 C   0  0  0  0  0  0  0  0  0  0  0  0
   -5.2117   -0.9923    1.5872 P   0  0  0  0  0  0  0  0  0  0  0  0
   -6.4230    0.0247    0.9476 O   0  0  0  0  0  0  0  0  0  0  0  0
   -5.8054   -2.3539    1.6872 O   0  0  0  0  0  0  0  0  0  0  0  0
   -3.8410   -0.8817    0.6389 O   0  0  0  0  0  0  0  0  0  0  0  0
   -4.0658   -1.2294   -0.6904 C   0  0  0  0  0  0  0  0  0  0  0  0
   -2.7785   -1.0773   -1.4160 C   0  0  0  0  0  0  0  0  0  0  0  0
   -2.8262   -1.3894   -2.7726 O   0  0  0  0  0  0  0  0  0  0  0  0
   -2.2757    0.3674   -1.3530 C   0  0  0  0  0  0  0  0  0  0  0  0
   -3.2386    1.2155   -1.8481 O   0  0  0  0  0  0  0  0  0  0  0  0
   -1.2251    0.1919   -2.4753 C   0  0  0  0  0  0  0  0  0  0  0  0
   -2.1972   -0.3921   -3.4746 C   0  0  0  0  0  0  0  0  0  0  0  0
   -1.6807   -0.6902   -4.7423 N   0  0  0  0  0  0  0  0  0  0  0  0
   -0.4998   -1.3234   -4.9222 C   0  0  0  0  0  0  0  0  0  0  0  0
    0.1999   -1.6811   -3.9370 O   0  0  0  0  0  0  0  0  0  0  0  0
   -0.0156   -1.6015   -6.1446 N   0  0  0  0  0  0  0  0  0  0  0  0
   -0.6674   -1.2719   -7.2786 C   0  0  0  0  0  0  0  0  0  0  0  0
   -0.2265   -1.5257   -8.4272 O   0  0  0  0  0  0  0  0  0  0  0  0
   -1.8796   -0.6225   -7.1331 C   0  0  0  0  0  0  0  0  0  0  0  0
   -2.7059   -0.1990   -8.2970 C   0  0  0  0  0  0  0  0  0  0  0  0
   -2.3535   -0.3492   -5.8670 C   0  0  0  0  0  0  0  0  0  0  0  0
   -3.4894    2.5996   -0.9134 P   0  0  0  0  0  0  0  0  0  0  0  0
   -5.0559    2.5143   -0.2827 O   0  0  0  0  0  0  0  0  0  0  0  0
   -2.4762    2.7184    0.1741 O   0  0  0  0  0  0  0  0  0  0  0  0
   -3.3850    3.9109   -2.0133 O   0  0  0  0  0  0  0  0  0  0  0  0
   -2.0795    4.2953   -2.1984 C   0  0  0  0  0  0  0  0  0  0  0  0
   -1.8928    5.3154   -3.3053 C   0  0  0  0  0  0  0  0  0  0  0  0
   -2.3149    4.8516   -4.5250 O   0  0  0  0  0  0  0  0  0  0  0  0
   -0.3880    5.5523   -3.4401 C   0  0  0  0  0  0  0  0  0  0  0  0
    0.0418    6.4842   -2.5125 O   0  0  0  0  0  0  0  0  0  0  0  0
   -0.3524    6.0872   -4.8737 C   0  0  0  0  0  0  0  0  0  0  0  0
   -1.5140    5.3649   -5.5086 C   0  0  0  0  0  0  0  0  0  0  0  0
   -2.1865    6.1257   -6.5236 N   0  0  0  0  0  0  0  0  0  0  0  0
   -1.6924    7.1146   -7.2873 C   0  0  0  0  0  0  0  0  0  0  0  0
   -2.6671    7.5464   -8.1073 N   0  0  0  0  0  0  0  0  0  0  0  0
   -3.7719    6.8474   -7.8764 C   0  0  0  0  0  0  0  0  0  0  0  0
   -5.0367    6.8865   -8.4313 C   0  0  0  0  0  0  0  0  0  0  0  0
   -5.3811    7.8103   -9.4758 N   0  0  0  0  0  0  0  0  0  0  0  0
   -5.9562    6.0237   -7.9638 N   0  0  0  0  0  0  0  0  0  0  0  0
   -5.6727    5.1428   -6.9876 C   0  0  0  0  0  0  0  0  0  0  0  0
   -4.4541    5.1042   -6.4524 N   0  0  0  0  0  0  0  0  0  0  0  0
   -3.4724    5.9381   -6.8660 C   0  0  0  0  0  0  0  0  0  0  0  0
    1.2999    5.9143   -1.5437 P   0  0  0  0  0  0  0  0  0  0  0  0
    0.8296    5.9145    0.0943 O   0  0  0  0  0  0  0  0  0  0  0  0
    2.5387    6.7812   -1.6426 O   0  0  0  0  0  0  0  0  0  0  0  0
    1.7229    4.3804   -2.0571 O   0  0  0  0  0  0  0  0  0  0  0  0
    1.8981    3.4856   -1.0210 C   0  0  0  0  0  0  0  0  0  0  0  0
    2.3529    2.1715   -1.5882 C   0  0  0  0  0  0  0  0  0  0  0  0
    3.5544    2.3855   -2.2629 O   0  0  0  0  0  0  0  0  0  0  0  0
    2.7995    1.2062   -0.5116 C   0  0  0  0  0  0  0  0  0  0  0  0
    2.8850   -0.0865   -1.0200 O   0  0  0  0  0  0  0  0  0  0  0  0
    4.1827    1.6940   -0.1298 C   0  0  0  0  0  0  0  0  0  0  0  0
    4.5064    2.6301   -1.2858 C   0  0  0  0  0  0  0  0  0  0  0  0
    5.8331    2.3219   -1.8267 N   0  0  0  0  0  0  0  0  0  0  0  0
    6.8407    2.3394   -0.9208 C   0  0  0  0  0  0  0  0  0  0  0  0
    6.6408    2.6032    0.2991 O   0  0  0  0  0  0  0  0  0  0  0  0
    8.1061    2.0671   -1.3244 N   0  0  0  0  0  0  0  0  0  0  0  0
    8.3647    1.7812   -2.6121 C   0  0  0  0  0  0  0  0  0  0  0  0
    9.6969    1.4980   -3.0189 N   0  0  0  0  0  0  0  0  0  0  0  0
    7.3159    1.7675   -3.5311 C   0  0  0  0  0  0  0  0  0  0  0  0
    6.0279    2.0434   -3.1274 C   0  0  0  0  0  0  0  0  0  0  0  0
    1.9348   -1.1323   -0.1209 P   0  0  0  0  0  0  0  0  0  0  0  0
    2.7701   -1.7439    1.0000 O   0  0  0  0  0  0  0  0  0  0  0  0
    0.5957   -0.3157    0.5116 O   0  0  0  0  0  0  0  0  0  0  0  0
    1.3425   -2.4394   -1.0336 O   0  0  0  0  0  0  0  0  0  0  0  0
    0.6235   -3.2244   -0.1352 C   0  0  0  0  0  0  0  0  0  0  0  0
    0.0129   -4.4381   -0.7517 C   0  0  0  0  0  0  0  0  0  0  0  0
   -0.8607   -4.0854   -1.7522 O   0  0  0  0  0  0  0  0  0  0  0  0
    1.1066   -5.2371   -1.4319 C   0  0  0  0  0  0  0  0  0  0  0  0
    1.6197   -6.2240   -0.5947 O   0  0  0  0  0  0  0  0  0  0  0  0
    0.3380   -5.9100   -2.5517 C   0  0  0  0  0  0  0  0  0  0  0  0
   -1.0358   -5.3100   -2.4194 C   0  0  0  0  0  0  0  0  0  0  0  0
   -1.6576   -5.1145   -3.7156 N   0  0  0  0  0  0  0  0  0  0  0  0
   -1.0274   -4.6817   -4.8164 C   0  0  0  0  0  0  0  0  0  0  0  0
   -1.8893   -4.6066   -5.8606 N   0  0  0  0  0  0  0  0  0  0  0  0
   -3.0837   -4.9974   -5.4160 C   0  0  0  0  0  0  0  0  0  0  0  0
   -4.2941   -5.1020   -6.0781 C   0  0  0  0  0  0  0  0  0  0  0  0
   -4.3967   -4.8077   -7.2934 O   0  0  0  0  0  0  0  0  0  0  0  0
   -5.3454   -5.5368   -5.3384 N   0  0  0  0  0  0  0  0  0  0  0  0
   -5.1983   -5.8471   -4.0223 C   0  0  0  0  0  0  0  0  0  0  0  0
   -6.3854   -6.2918   -3.3609 N   0  0  0  0  0  0  0  0  0  0  0  0
   -4.0164   -5.7419   -3.3872 N   0  0  0  0  0  0  0  0  0  0  0  0
   -2.9437   -5.3151   -4.0782 C   0  0  0  0  0  0  0  0  0  0  0  0
    2.2486   -1.1150    8.4021 H   0  0  0  0  0  0  0  0  0  0  0  0
    1.4770   -1.8645    6.1696 H   0  0  0  0  0  0  0  0  0  0  0  0
    2.9503   -2.6079    6.9021 H   0  0  0  0  0  0  0  0  0  0  0  0
    3.2581   -2.0364    4.6240 H   0  0  0  0  0  0  0  0  0  0  0  0
    2.7967    0.8384    5.6326 H   0  0  0  0  0  0  0  0  0  0  0  0
    4.1806   -0.0924    3.0516 H   0  0  0  0  0  0  0  0  0  0  0  0
    4.1626    1.5588    3.8755 H   0  0  0  0  0  0  0  0  0  0  0  0
    6.0633   -0.5361    4.3336 H   0  0  0  0  0  0  0  0  0  0  0  0
    6.6622    5.1310    7.9520 H   0  0  0  0  0  0  0  0  0  0  0  0
    8.2948    4.3747    7.8965 H   0  0  0  0  0  0  0  0  0  0  0  0
    6.0811    2.2422    8.7475 H   0  0  0  0  0  0  0  0  0  0  0  0
    5.1729    0.2827    7.4877 H   0  0  0  0  0  0  0  0  0  0  0  0
   -1.3213    1.4602    2.8363 H   0  0  0  0  0  0  0  0  0  0  0  0
   -1.5967    2.4034    4.3091 H   0  0  0  0  0  0  0  0  0  0  0  0
   -3.7042    1.7763    3.2375 H   0  0  0  0  0  0  0  0  0  0  0  0
   -2.8281   -0.6338    2.4725 H   0  0  0  0  0  0  0  0  0  0  0  0
   -2.0573   -1.4995    4.6340 H   0  0  0  0  0  0  0  0  0  0  0  0
   -3.7250   -2.1056    4.4888 H   0  0  0  0  0  0  0  0  0  0  0  0
   -4.5973   -0.6044    5.9531 H   0  0  0  0  0  0  0  0  0  0  0  0
   -2.5225    1.8278    7.2000 H   0  0  0  0  0  0  0  0  0  0  0  0
   -1.7498   -5.4643    7.2993 H   0  0  0  0  0  0  0  0  0  0  0  0
   -2.5217   -5.4472    8.9696 H   0  0  0  0  0  0  0  0  0  0  0  0
   -3.0356   -3.0414    6.5866 H   0  0  0  0  0  0  0  0  0  0  0  0
   -4.4445   -2.2450   -0.8142 H   0  0  0  0  0  0  0  0  0  0  0  0
   -4.7713   -0.4739   -1.0957 H   0  0  0  0  0  0  0  0  0  0  0  0
   -1.9473   -1.6736   -0.9836 H   0  0  0  0  0  0  0  0  0  0  0  0
   -1.8089    0.6376   -0.4157 H   0  0  0  0  0  0  0  0  0  0  0  0
   -0.5400   -0.5572   -2.0247 H   0  0  0  0  0  0  0  0  0  0  0  0
   -0.7704    1.1309   -2.7753 H   0  0  0  0  0  0  0  0  0  0  0  0
   -2.9803    0.4185   -3.5814 H   0  0  0  0  0  0  0  0  0  0  0  0
    0.9077   -2.0968   -6.2777 H   0  0  0  0  0  0  0  0  0  0  0  0
   -2.6232   -0.8777   -9.1618 H   0  0  0  0  0  0  0  0  0  0  0  0
   -3.7670   -0.2185   -7.9830 H   0  0  0  0  0  0  0  0  0  0  0  0
   -2.5013    0.8731   -8.5561 H   0  0  0  0  0  0  0  0  0  0  0  0
   -3.3163    0.1667   -5.7511 H   0  0  0  0  0  0  0  0  0  0  0  0
   -1.4502    3.4011   -2.3802 H   0  0  0  0  0  0  0  0  0  0  0  0
   -1.7067    4.7663   -1.2496 H   0  0  0  0  0  0  0  0  0  0  0  0
   -2.3748    6.2590   -3.0480 H   0  0  0  0  0  0  0  0  0  0  0  0
    0.1706    4.6117   -3.3814 H   0  0  0  0  0  0  0  0  0  0  0  0
   -0.4445    7.1762   -4.8426 H   0  0  0  0  0  0  0  0  0  0  0  0
    0.6259    5.8425   -5.3168 H   0  0  0  0  0  0  0  0  0  0  0  0
   -1.0488    4.4852   -6.0442 H   0  0  0  0  0  0  0  0  0  0  0  0
   -0.6728    7.5059   -7.2525 H   0  0  0  0  0  0  0  0  0  0  0  0
   -5.3022    7.5420  -10.4867 H   0  0  0  0  0  0  0  0  0  0  0  0
   -5.7224    8.7818   -9.2725 H   0  0  0  0  0  0  0  0  0  0  0  0
   -6.4904    4.4867   -6.6812 H   0  0  0  0  0  0  0  0  0  0  0  0
    0.8822    3.3316   -0.5757 H   0  0  0  0  0  0  0  0  0  0  0  0
    2.6178    3.8877   -0.3108 H   0  0  0  0  0  0  0  0  0  0  0  0
    1.6045    1.6740   -2.2053 H   0  0  0  0  0  0  0  0  0  0  0  0
    2.1168    1.2308    0.3367 H   0  0  0  0  0  0  0  0  0  0  0  0
    4.1663    2.2812    0.8273 H   0  0  0  0  0  0  0  0  0  0  0  0
    4.8991    0.8602   -0.0653 H   0  0  0  0  0  0  0  0  0  0  0  0
    4.5257    3.6962   -0.9871 H   0  0  0  0  0  0  0  0  0  0  0  0
   10.0336    0.5252   -2.8602 H   0  0  0  0  0  0  0  0  0  0  0  0
   10.3173    2.2203   -3.4563 H   0  0  0  0  0  0  0  0  0  0  0  0
    7.5157    1.5356   -4.5839 H   0  0  0  0  0  0  0  0  0  0  0  0
    5.1797    2.0459   -3.8025 H   0  0  0  0  0  0  0  0  0  0  0  0
   -0.1265   -2.5391    0.3187 H   0  0  0  0  0  0  0  0  0  0  0  0
    1.3014   -3.4880    0.7233 H   0  0  0  0  0  0  0  0  0  0  0  0
   -0.4707   -5.0136    0.0636 H   0  0  0  0  0  0  0  0  0  0  0  0
    1.8930   -4.5576   -1.8234 H   0  0  0  0  0  0  0  0  0  0  0  0
    0.8957   -6.5541   -0.0313 H   0  0  0  0  0  0  0  0  0  0  0  0
    0.8448   -5.6713   -3.4984 H   0  0  0  0  0  0  0  0  0  0  0  0
    0.3182   -7.0159   -2.4233 H   0  0  0  0  0  0  0  0  0  0  0  0
   -1.6540   -5.9559   -1.7583 H   0  0  0  0  0  0  0  0  0  0  0  0
    0.0200   -4.4190   -4.8987 H   0  0  0  0  0  0  0  0  0  0  0  0
   -7.0024   -5.6362   -2.8139 H   0  0  0  0  0  0  0  0  0  0  0  0
   -6.6569   -7.3132   -3.4206 H   0  0  0  0  0  0  0  0  0  0  0  0
   -3.9335   -5.9865   -2.3783 H   0  0  0  0  0  0  0  0  0  0  0  0
  1  2  1  0
  1121  1  0
  2  3  1  0
  2122  1  0
  2123  1  0
  3  4  1  0
  3  5  1  0
  3124  1  0
  4  8  1  0
  5  7  1  0
  5  6  1  0
  5125  1  0
  6 17  1  0
  7  8  1  0
  7126  1  0
  7127  1  0
  8  9  1  0
  8128  1  0
  9 16  1  0
  9 10  1  0
 10 12  1  0
 10 11  2  0
 12 13  2  0
 13 15  1  0
 13 14  1  0
 14129  1  0
 14130  1  0
 15 16  2  0
 15131  1  0
 16132  1  0
 17 20  1  0
 17 19  2  0
 17 18  1  0
 20 21  1  0
 21 22  1  0
 21133  1  0
 21134  1  0
 22 24  1  0
 22 23  1  0
 22135  1  0
 23 27  1  0
 24 25  1  0
 24 26  1  0
 24136  1  0
 25 39  1  0
 26 27  1  0
 26137  1  0
 26138  1  0
 27 28  1  0
 27139  1  0
 28 38  1  0
 28 29  1  0
 29 30  2  0
 29140  1  0
 30 31  1  0
 31 32  1  0
 31 38  2  0
 32 33  2  0
 32 34  1  0
 34 35  2  0
 35 36  1  0
 35 37  1  0
 36141  1  0
 36142  1  0
 37 38  1  0
 37143  1  0
 39 41  2  0
 39 42  1  0
 39 40  1  0
 42 43  1  0
 43 44  1  0
 43144  1  0
 43145  1  0
 44 46  1  0
 44 45  1  0
 44146  1  0
 45 49  1  0
 46 48  1  0
 46 47  1  0
 46147  1  0
 47 59  1  0
 48 49  1  0
 48148  1  0
 48149  1  0
 49 50  1  0
 49150  1  0
 50 51  1  0
 50 58  1  0
 51 53  1  0
 51 52  2  0
 53 54  1  0
 53151  1  0
 54 55  2  0
 54 56  1  0
 56 57  1  0
 56 58  2  0
 57152  1  0
 57153  1  0
 57154  1  0
 58155  1  0
 59 61  2  0
 59 62  1  0
 59 60  1  0
 62 63  1  0
 63 64  1  0
 63156  1  0
 63157  1  0
 64 66  1  0
 64 65  1  0
 64158  1  0
 65 69  1  0
 66 68  1  0
 66 67  1  0
 66159  1  0
 67 80  1  0
 68 69  1  0
 68160  1  0
 68161  1  0
 69 70  1  0
 69162  1  0
 70 79  1  0
 70 71  1  0
 71 72  2  0
 71163  1  0
 72 73  1  0
 73 79  2  0
 73 74  1  0
 74 76  2  0
 74 75  1  0
 75164  1  0
 75165  1  0
 76 77  1  0
 77 78  2  0
 77166  1  0
 78 79  1  0
 80 83  1  0
 80 82  2  0
 80 81  1  0
 83 84  1  0
 84 85  1  0
 84167  1  0
 84168  1  0
 85 87  1  0
 85 86  1  0
 85169  1  0
 86 90  1  0
 87 88  1  0
 87 89  1  0
 87170  1  0
 88 99  1  0
 89 90  1  0
 89171  1  0
 89172  1  0
 90 91  1  0
 90173  1  0
 91 98  1  0
 91 92  1  0
 92 93  2  0
 92 94  1  0
 94 95  2  0
 95 97  1  0
 95 96  1  0
 96174  1  0
 96175  1  0
 97 98  2  0
 97176  1  0
 98177  1  0
 99100  2  0
 99101  1  0
 99102  1  0
102103  1  0
103104  1  0
103178  1  0
103179  1  0
104105  1  0
104106  1  0
104180  1  0
105109  1  0
106108  1  0
106107  1  0
106181  1  0
107182  1  0
108109  1  0
108183  1  0
108184  1  0
109110  1  0
109185  1  0
110111  1  0
110120  1  0
111112  2  0
111186  1  0
112113  1  0
113114  1  0
113120  2  0
114115  2  0
114116  1  0
116117  2  0
117118  1  0
117119  1  0
118187  1  0
118188  1  0
119120  1  0
119189  1  0
M  CHG  5  18  -1  40  -1  60  -1  81  -1 101  -1
M  END
$$$$
DNA (5'-D(*CP*GP*TP*AP*CP*G)-3')
     RDKit          3D

189203  0  0  0  0  0  0  0  0999 V2000
    4.9484   -4.6933    5.2785 O   0  0  0  0  0  0  0  0  0  0  0  0
    4.2418   -4.8850    4.1088 C   0  0  0  0  0  0  0  0  0  0  0  0
    5.1557   -5.0615    2.9132 C   0  0  0  0  0  0  0  0  0  0  0  0
    5.9300   -3.9362    2.7735 O   0  0  0  0  0  0  0  0  0  0  0  0
    4.3400   -5.2001    1.6401 C   0  0  0  0  0  0  0  0  0  0  0  0
    4.6033   -6.3903    1.0031 O   0  0  0  0  0  0  0  0  0  0  0  0
    4.7802   -4.0021    0.8311 C   0  0  0  0  0  0  0  0  0  0  0  0
    5.3028   -3.0643    1.9156 C   0  0  0  0  0  0  0  0  0  0  0  0
    6.2738   -2.1198    1.3905 N   0  0  0  0  0  0  0  0  0  0  0  0
    5.9684   -1.2760    0.3832 C   0  0  0  0  0  0  0  0  0  0  0  0
    4.7794   -1.3611   -0.0713 O   0  0  0  0  0  0  0  0  0  0  0  0
    6.8297   -0.3897   -0.1331 N   0  0  0  0  0  0  0  0  0  0  0  0
    8.0969   -0.2955    0.3521 C   0  0  0  0  0  0  0  0  0  0  0  0
    8.9939    0.6528   -0.2129 N   0  0  0  0  0  0  0  0  0  0  0  0
    8.4368   -1.1430    1.3803 C   0  0  0  0  0  0  0  0  0  0  0  0
    7.5205   -2.0619    1.9043 C   0  0  0  0  0  0  0  0  0  0  0  0
    3.3275   -7.4560    0.9150 P   0  0  0  0  0  0  0  0  0  0  0  0
    3.6034   -8.4896   -0.4216 O   0  0  0  0  0  0  0  0  0  0  0  0
    3.1939   -8.2886    2.1937 O   0  0  0  0  0  0  0  0  0  0  0  0
    1.8778   -6.6278    0.5858 O   0  0  0  0  0  0  0  0  0  0  0  0
    0.9698   -7.4869   -0.0166 C   0  0  0  0  0  0  0  0  0  0  0  0
   -0.2976   -6.7349   -0.3078 C   0  0  0  0  0  0  0  0  0  0  0  0
   -1.2560   -7.5325   -0.9203 O   0  0  0  0  0  0  0  0  0  0  0  0
   -0.8912   -6.1874    0.9614 C   0  0  0  0  0  0  0  0  0  0  0  0
   -1.1870   -4.8751    0.9338 O   0  0  0  0  0  0  0  0  0  0  0  0
   -2.1123   -7.0860    1.0915 C   0  0  0  0  0  0  0  0  0  0  0  0
   -2.4771   -7.1411   -0.3910 C   0  0  0  0  0  0  0  0  0  0  0  0
   -3.5553   -8.0456   -0.6290 N   0  0  0  0  0  0  0  0  0  0  0  0
   -3.9797   -9.0512    0.1688 C   0  0  0  0  0  0  0  0  0  0  0  0
   -5.0301   -9.6854   -0.3877 N   0  0  0  0  0  0  0  0  0  0  0  0
   -5.2967   -9.0787   -1.5757 C   0  0  0  0  0  0  0  0  0  0  0  0
   -6.2427   -9.2935   -2.5608 C   0  0  0  0  0  0  0  0  0  0  0  0
   -7.0773  -10.2335   -2.4101 O   0  0  0  0  0  0  0  0  0  0  0  0
   -6.2543   -8.4952   -3.6615 N   0  0  0  0  0  0  0  0  0  0  0  0
   -5.3418   -7.4954   -3.7904 C   0  0  0  0  0  0  0  0  0  0  0  0
   -5.3507   -6.6610   -4.9503 N   0  0  0  0  0  0  0  0  0  0  0  0
   -4.4344   -7.3152   -2.8108 N   0  0  0  0  0  0  0  0  0  0  0  0
   -4.3697   -8.0632   -1.7067 C   0  0  0  0  0  0  0  0  0  0  0  0
   -0.6835   -3.8485    2.0967 P   0  0  0  0  0  0  0  0  0  0  0  0
    0.7911   -4.3718    2.7306 O   0  0  0  0  0  0  0  0  0  0  0  0
   -1.6092   -3.6933    3.2842 O   0  0  0  0  0  0  0  0  0  0  0  0
   -0.4111   -2.2580    1.5111 O   0  0  0  0  0  0  0  0  0  0  0  0
   -1.6782   -1.6851    1.4086 C   0  0  0  0  0  0  0  0  0  0  0  0
   -1.7770   -0.6708    0.3119 C   0  0  0  0  0  0  0  0  0  0  0  0
   -1.5267   -1.2039   -0.9404 O   0  0  0  0  0  0  0  0  0  0  0  0
   -0.7932    0.4642    0.4143 C   0  0  0  0  0  0  0  0  0  0  0  0
    0.4083    0.0795    0.9757 O   0  0  0  0  0  0  0  0  0  0  0  0
   -0.6189    0.8584   -1.0530 C   0  0  0  0  0  0  0  0  0  0  0  0
   -1.6002   -0.0611   -1.7373 C   0  0  0  0  0  0  0  0  0  0  0  0
   -1.2623   -0.3564   -3.1121 N   0  0  0  0  0  0  0  0  0  0  0  0
   -1.5870    0.4193   -4.1548 C   0  0  0  0  0  0  0  0  0  0  0  0
   -2.2200    1.4798   -3.9185 O   0  0  0  0  0  0  0  0  0  0  0  0
   -1.2258    0.0332   -5.3936 N   0  0  0  0  0  0  0  0  0  0  0  0
   -0.5417   -1.1167   -5.6297 C   0  0  0  0  0  0  0  0  0  0  0  0
   -0.2153   -1.4538   -6.7961 O   0  0  0  0  0  0  0  0  0  0  0  0
   -0.1960   -1.9304   -4.5759 C   0  0  0  0  0  0  0  0  0  0  0  0
    0.5460   -3.2015   -4.7228 C   0  0  0  0  0  0  0  0  0  0  0  0
   -0.5745   -1.5178   -3.3159 C   0  0  0  0  0  0  0  0  0  0  0  0
    0.7515    1.0339    2.3200 P   0  0  0  0  0  0  0  0  0  0  0  0
    2.3583    0.6674    2.7817 O   0  0  0  0  0  0  0  0  0  0  0  0
   -0.1736    0.6444    3.4473 O   0  0  0  0  0  0  0  0  0  0  0  0
    0.7166    2.6680    1.9768 O   0  0  0  0  0  0  0  0  0  0  0  0
   -0.0489    3.4184    2.8320 C   0  0  0  0  0  0  0  0  0  0  0  0
    0.3136    4.9024    2.6619 C   0  0  0  0  0  0  0  0  0  0  0  0
    1.6582    4.9849    2.9575 O   0  0  0  0  0  0  0  0  0  0  0  0
   -0.4324    5.7957    3.5880 C   0  0  0  0  0  0  0  0  0  0  0  0
   -1.6569    5.2843    4.0144 O   0  0  0  0  0  0  0  0  0  0  0  0
    0.5246    5.9942    4.7402 C   0  0  0  0  0  0  0  0  0  0  0  0
    1.8558    5.7534    4.0675 C   0  0  0  0  0  0  0  0  0  0  0  0
    2.8640    5.2274    4.9778 N   0  0  0  0  0  0  0  0  0  0  0  0
    3.8453    5.9597    5.5371 C   0  0  0  0  0  0  0  0  0  0  0  0
    4.6177    5.1861    6.3333 N   0  0  0  0  0  0  0  0  0  0  0  0
    4.1372    3.9368    6.2947 C   0  0  0  0  0  0  0  0  0  0  0  0
    4.5286    2.7616    6.9045 C   0  0  0  0  0  0  0  0  0  0  0  0
    5.6437    2.6807    7.7822 N   0  0  0  0  0  0  0  0  0  0  0  0
    3.8119    1.6316    6.6519 N   0  0  0  0  0  0  0  0  0  0  0  0
    2.7594    1.7157    5.8228 C   0  0  0  0  0  0  0  0  0  0  0  0
    2.3810    2.8583    5.2315 N   0  0  0  0  0  0  0  0  0  0  0  0
    3.0394    3.9850    5.4399 C   0  0  0  0  0  0  0  0  0  0  0  0
   -2.8580    6.4006    3.6035 P   0  0  0  0  0  0  0  0  0  0  0  0
   -2.2044    7.8519    3.0550 O   0  0  0  0  0  0  0  0  0  0  0  0
   -3.6422    6.7065    4.8571 O   0  0  0  0  0  0  0  0  0  0  0  0
   -3.8992    5.7782    2.4298 O   0  0  0  0  0  0  0  0  0  0  0  0
   -3.3222    5.8135    1.1619 C   0  0  0  0  0  0  0  0  0  0  0  0
   -4.1227    4.9366    0.2830 C   0  0  0  0  0  0  0  0  0  0  0  0
   -5.4719    5.3013    0.1416 O   0  0  0  0  0  0  0  0  0  0  0  0
   -3.7308    4.9993   -1.1988 C   0  0  0  0  0  0  0  0  0  0  0  0
   -2.4677    4.5103   -1.4091 O   0  0  0  0  0  0  0  0  0  0  0  0
   -4.8368    4.0803   -1.7360 C   0  0  0  0  0  0  0  0  0  0  0  0
   -5.9130    4.2405   -0.7094 C   0  0  0  0  0  0  0  0  0  0  0  0
   -6.0725    3.1179    0.1848 N   0  0  0  0  0  0  0  0  0  0  0  0
   -6.4874    3.3573    1.4664 C   0  0  0  0  0  0  0  0  0  0  0  0
   -6.7163    4.5722    1.7980 O   0  0  0  0  0  0  0  0  0  0  0  0
   -6.6607    2.4026    2.3678 N   0  0  0  0  0  0  0  0  0  0  0  0
   -6.4225    1.1270    2.0282 C   0  0  0  0  0  0  0  0  0  0  0  0
   -6.6283    0.1407    3.0408 N   0  0  0  0  0  0  0  0  0  0  0  0
   -5.9980    0.7843    0.7518 C   0  0  0  0  0  0  0  0  0  0  0  0
   -5.8410    1.8444   -0.1324 C   0  0  0  0  0  0  0  0  0  0  0  0
   -1.4645    5.6945   -2.1334 P   0  0  0  0  0  0  0  0  0  0  0  0
   -2.0166    5.9689   -3.4964 O   0  0  0  0  0  0  0  0  0  0  0  0
   -1.4652    7.0870   -1.1850 O   0  0  0  0  0  0  0  0  0  0  0  0
    0.1190    5.0943   -2.1926 O   0  0  0  0  0  0  0  0  0  0  0  0
    0.3260    4.2979   -3.2986 C   0  0  0  0  0  0  0  0  0  0  0  0
    1.7152    3.6789   -3.1980 C   0  0  0  0  0  0  0  0  0  0  0  0
    1.9820    2.8639   -4.2749 O   0  0  0  0  0  0  0  0  0  0  0  0
    2.8058    4.6935   -3.1015 C   0  0  0  0  0  0  0  0  0  0  0  0
    3.3362    4.8016   -1.8123 O   0  0  0  0  0  0  0  0  0  0  0  0
    3.8556    4.1086   -4.0493 C   0  0  0  0  0  0  0  0  0  0  0  0
    2.9476    3.4403   -5.0655 C   0  0  0  0  0  0  0  0  0  0  0  0
    3.6217    2.4277   -5.8443 N   0  0  0  0  0  0  0  0  0  0  0  0
    4.2175    2.5867   -7.0356 C   0  0  0  0  0  0  0  0  0  0  0  0
    4.7318    1.4030   -7.4504 N   0  0  0  0  0  0  0  0  0  0  0  0
    4.4616    0.4718   -6.5106 C   0  0  0  0  0  0  0  0  0  0  0  0
    4.7361   -0.8950   -6.3925 C   0  0  0  0  0  0  0  0  0  0  0  0
    5.3703   -1.4720   -7.3147 O   0  0  0  0  0  0  0  0  0  0  0  0
    4.3371   -1.5772   -5.3276 N   0  0  0  0  0  0  0  0  0  0  0  0
    3.6597   -0.9308   -4.3550 C   0  0  0  0  0  0  0  0  0  0  0  0
    3.2410   -1.6795   -3.2213 N   0  0  0  0  0  0  0  0  0  0  0  0
    3.3733    0.3916   -4.4321 N   0  0  0  0  0  0  0  0  0  0  0  0
    3.7604    1.1196   -5.4967 C   0  0  0  0  0  0  0  0  0  0  0  0
    4.3396   -4.7644    6.0571 H   0  0  0  0  0  0  0  0  0  0  0  0
    3.6476   -5.8156    4.2161 H   0  0  0  0  0  0  0  0  0  0  0  0
    3.5316   -4.0648    3.9168 H   0  0  0  0  0  0  0  0  0  0  0  0
    5.7924   -5.9412    3.0816 H   0  0  0  0  0  0  0  0  0  0  0  0
    3.2667   -5.1681    1.9211 H   0  0  0  0  0  0  0  0  0  0  0  0
    3.9080   -3.4752    0.3781 H   0  0  0  0  0  0  0  0  0  0  0  0
    5.5385   -4.2509    0.0859 H   0  0  0  0  0  0  0  0  0  0  0  0
    4.4390   -2.5441    2.3568 H   0  0  0  0  0  0  0  0  0  0  0  0
    9.4822    0.4341   -1.1164 H   0  0  0  0  0  0  0  0  0  0  0  0
    9.2079    1.5783    0.2148 H   0  0  0  0  0  0  0  0  0  0  0  0
    9.4377   -1.1036    1.7976 H   0  0  0  0  0  0  0  0  0  0  0  0
    7.7774   -2.7296    2.7120 H   0  0  0  0  0  0  0  0  0  0  0  0
    1.3818   -8.0264   -0.8830 H   0  0  0  0  0  0  0  0  0  0  0  0
    0.7539   -8.2814    0.7564 H   0  0  0  0  0  0  0  0  0  0  0  0
   -0.0365   -5.9456   -1.0408 H   0  0  0  0  0  0  0  0  0  0  0  0
   -0.2287   -6.4195    1.8004 H   0  0  0  0  0  0  0  0  0  0  0  0
   -2.8898   -6.7232    1.7412 H   0  0  0  0  0  0  0  0  0  0  0  0
   -1.8345   -8.1130    1.3826 H   0  0  0  0  0  0  0  0  0  0  0  0
   -2.6836   -6.1123   -0.7562 H   0  0  0  0  0  0  0  0  0  0  0  0
   -3.5082   -9.2808    1.1208 H   0  0  0  0  0  0  0  0  0  0  0  0
   -5.6476   -6.9977   -5.8956 H   0  0  0  0  0  0  0  0  0  0  0  0
   -5.0465   -5.6691   -4.8501 H   0  0  0  0  0  0  0  0  0  0  0  0
   -3.7358   -6.5311   -2.9374 H   0  0  0  0  0  0  0  0  0  0  0  0
   -2.4189   -2.4829    1.2710 H   0  0  0  0  0  0  0  0  0  0  0  0
   -1.8929   -1.1845    2.3698 H   0  0  0  0  0  0  0  0  0  0  0  0
   -2.7960   -0.2508    0.3099 H   0  0  0  0  0  0  0  0  0  0  0  0
   -1.2639    1.3276    0.9230 H   0  0  0  0  0  0  0  0  0  0  0  0
    0.4230    0.6376   -1.3682 H   0  0  0  0  0  0  0  0  0  0  0  0
   -0.9105    1.9094   -1.2220 H   0  0  0  0  0  0  0  0  0  0  0  0
   -2.6263    0.3509   -1.6345 H   0  0  0  0  0  0  0  0  0  0  0  0
   -1.4745    0.6289   -6.2035 H   0  0  0  0  0  0  0  0  0  0  0  0
   -0.1320   -4.0472   -4.9676 H   0  0  0  0  0  0  0  0  0  0  0  0
    1.3024   -3.1757   -5.5389 H   0  0  0  0  0  0  0  0  0  0  0  0
    1.1336   -3.4220   -3.7877 H   0  0  0  0  0  0  0  0  0  0  0  0
   -0.3111   -2.1413   -2.4730 H   0  0  0  0  0  0  0  0  0  0  0  0
   -1.1344    3.3741    2.5185 H   0  0  0  0  0  0  0  0  0  0  0  0
   -0.0138    3.1293    3.8716 H   0  0  0  0  0  0  0  0  0  0  0  0
    0.1178    5.2297    1.6187 H   0  0  0  0  0  0  0  0  0  0  0  0
   -0.5990    6.8021    3.1270 H   0  0  0  0  0  0  0  0  0  0  0  0
    0.4461    7.0507    5.1334 H   0  0  0  0  0  0  0  0  0  0  0  0
    0.3305    5.2545    5.5439 H   0  0  0  0  0  0  0  0  0  0  0  0
    2.1783    6.7704    3.6918 H   0  0  0  0  0  0  0  0  0  0  0  0
    3.9869    7.0127    5.3667 H   0  0  0  0  0  0  0  0  0  0  0  0
    6.5670    2.4313    7.3552 H   0  0  0  0  0  0  0  0  0  0  0  0
    5.5439    2.8628    8.8118 H   0  0  0  0  0  0  0  0  0  0  0  0
    2.1504    0.8293    5.5883 H   0  0  0  0  0  0  0  0  0  0  0  0
   -2.2825    5.4865    1.1522 H   0  0  0  0  0  0  0  0  0  0  0  0
   -3.3573    6.8563    0.7896 H   0  0  0  0  0  0  0  0  0  0  0  0
   -4.0888    3.8702    0.5938 H   0  0  0  0  0  0  0  0  0  0  0  0
   -3.8798    6.0377   -1.5464 H   0  0  0  0  0  0  0  0  0  0  0  0
   -4.3712    3.0910   -1.7958 H   0  0  0  0  0  0  0  0  0  0  0  0
   -5.1409    4.5005   -2.7174 H   0  0  0  0  0  0  0  0  0  0  0  0
   -6.8525    4.5228   -1.1979 H   0  0  0  0  0  0  0  0  0  0  0  0
   -6.9209   -0.8329    2.8336 H   0  0  0  0  0  0  0  0  0  0  0  0
   -6.4795    0.4004    4.0571 H   0  0  0  0  0  0  0  0  0  0  0  0
   -5.8066   -0.2462    0.4825 H   0  0  0  0  0  0  0  0  0  0  0  0
   -5.5139    1.5809   -1.1279 H   0  0  0  0  0  0  0  0  0  0  0  0
    0.3625    4.9835   -4.1926 H   0  0  0  0  0  0  0  0  0  0  0  0
   -0.4464    3.5267   -3.4227 H   0  0  0  0  0  0  0  0  0  0  0  0
    1.7834    3.0378   -2.2733 H   0  0  0  0  0  0  0  0  0  0  0  0
    2.5133    5.6976   -3.4637 H   0  0  0  0  0  0  0  0  0  0  0  0
    3.8767    3.9834   -1.5913 H   0  0  0  0  0  0  0  0  0  0  0  0
    4.4373    3.3439   -3.5251 H   0  0  0  0  0  0  0  0  0  0  0  0
    4.4874    4.9001   -4.5094 H   0  0  0  0  0  0  0  0  0  0  0  0
    2.5526    4.2100   -5.7698 H   0  0  0  0  0  0  0  0  0  0  0  0
    4.2582    3.5477   -7.5562 H   0  0  0  0  0  0  0  0  0  0  0  0
    3.6977   -2.5943   -2.9920 H   0  0  0  0  0  0  0  0  0  0  0  0
    2.4708   -1.3638   -2.5738 H   0  0  0  0  0  0  0  0  0  0  0  0
    2.8514    0.8117   -3.6426 H   0  0  0  0  0  0  0  0  0  0  0  0
  1  2  1  0
  1121  1  0
  2  3  1  0
  2122  1  0
  2123  1  0
  3  4  1  0
  3  5  1  0
  3124  1  0
  4  8  1  0
  5  7  1  0
  5  6  1  0
  5125  1  0
  6 17  1  0
  7  8  1  0
  7126  1  0
  7127  1  0
  8  9  1  0
  8128  1  0
  9 16  1  0
  9 10  1  0
 10 12  1  0
 10 11  2  0
 12 13  2  0
 13 15  1  0
 13 14  1  0
 14129  1  0
 14130  1  0
 15 16  2  0
 15131  1  0
 16132  1  0
 17 20  1  0
 17 19  2  0
 17 18  1  0
 20 21  1  0
 21 22  1  0
 21133  1  0
 21134  1  0
 22 24  1  0
 22 23  1  0
 22135  1  0
 23 27  1  0
 24 25  1  0
 24 26  1  0
 24136  1  0
 25 39  1  0
 26 27  1  0
 26137  1  0
 26138  1  0
 27 28  1  0
 27139  1  0
 28 38  1  0
 28 29  1  0
 29 30  2  0
 29140  1  0
 30 31  1  0
 31 32  1  0
 31 38  2  0
 32 33  2  0
 32 34  1  0
 34 35  2  0
 35 36  1  0
 35 37  1  0
 36141  1  0
 36142  1  0
 37 38  1  0
 37143  1  0
 39 41  2  0
 39 42  1  0
 39 40  1  0
 42 43  1  0
 43 44  1  0
 43144  1  0
 43145  1  0
 44 46  1  0
 44 45  1  0
 44146  1  0
 45 49  1  0
 46 48  1  0
 46 47  1  0
 46147  1  0
 47 59  1  0
 48 49  1  0
 48148  1  0
 48149  1  0
 49 50  1  0
 49150  1  0
 50 51  1  0
 50 58  1  0
 51 53  1  0
 51 52  2  0
 53 54  1  0
 53151  1  0
 54 55  2  0
 54 56  1  0
 56 57  1  0
 56 58  2  0
 57152  1  0
 57153  1  0
 57154  1  0
 58155  1  0
 59 61  2  0
 59 62  1  0
 59 60  1  0
 62 63  1  0
 63 64  1  0
 63156  1  0
 63157  1  0
 64 66  1  0
 64 65  1  0
 64158  1  0
 65 69  1  0
 66 68  1  0
 66 67  1  0
 66159  1  0
 67 80  1  0
 68 69  1  0
 68160  1  0
 68161  1  0
 69 70  1  0
 69162  1  0
 70 79  1  0
 70 71  1  0
 71 72  2  0
 71163  1  0
 72 73  1  0
 73 79  2  0
 73 74  1  0
 74 76  2  0
 74 75  1  0
 75164  1  0
 75165  1  0
 76 77  1  0
 77 78  2  0
 77166  1  0
 78 79  1  0
 80 83  1  0
 80 82  2  0
 80 81  1  0
 83 84  1  0
 84 85  1  0
 84167  1  0
 84168  1  0
 85 87  1  0
 85 86  1  0
 85169  1  0
 86 90  1  0
 87 88  1  0
 87 89  1  0
 87170  1  0
 88 99  1  0
 89 90  1  0
 89171  1  0
 89172  1  0
 90 91  1  0
 90173  1  0
 91 98  1  0
 91 92  1  0
 92 93  2  0
 92 94  1  0
 94 95  2  0
 95 97  1  0
 95 96  1  0
 96174  1  0
 96175  1  0
 97 98  2  0
 97176  1  0
 98177  1  0
 99100  2  0
 99101  1  0
 99102  1  0
102103  1  0
103104  1  0
103178  1  0
103179  1  0
104105  1  0
104106  1  0
104180  1  0
105109  1  0
106108  1  0
106107  1  0
106181  1  0
107182  1  0
108109  1  0
108183  1  0
108184  1  0
109110  1  0
109185  1  0
110111  1  0
110120  1  0
111112  2  0
111186  1  0
112113  1  0
113114  1  0
113120  2  0
114115  2  0
114116  1  0
116117  2  0
117118  1  0
117119  1  0
118187  1  0
118188  1  0
119120  1  0
119189  1  0
M  CHG  5  18  -1  40  -1  60  -1  81  -1 101  -1
M  END
$$$$
DNA (5'-D(*CP*GP*TP*AP*CP*G)-3')
     RDKit          3D

189203  0  0  0  0  0  0  0  0999 V2000
    6.4300   -0.2240    8.8845 O   0  0  0  0  0  0  0  0  0  0  0  0
    5.5743   -1.1328    8.2739 C   0  0  0  0  0  0  0  0  0  0  0  0
    4.1981   -0.5050    8.2736 C   0  0  0  0  0  0  0  0  0  0  0  0
    4.1651    0.6957    7.5819 O   0  0  0  0  0  0  0  0  0  0  0  0
    3.1424   -1.3944    7.7047 C   0  0  0  0  0  0  0  0  0  0  0  0
    3.6795   -2.0638    6.6047 O   0  0  0  0  0  0  0  0  0  0  0  0
    2.2064   -0.3373    7.0935 C   0  0  0  0  0  0  0  0  0  0  0  0
    3.2943    0.5792    6.5176 C   0  0  0  0  0  0  0  0  0  0  0  0
    2.7083    1.8068    6.0775 N   0  0  0  0  0  0  0  0  0  0  0  0
    3.1802    3.0209    6.3479 C   0  0  0  0  0  0  0  0  0  0  0  0
    4.2252    3.0986    7.0457 O   0  0  0  0  0  0  0  0  0  0  0  0
    2.5520    4.1308    5.8844 N   0  0  0  0  0  0  0  0  0  0  0  0
    1.4461    4.0767    5.1446 C   0  0  0  0  0  0  0  0  0  0  0  0
    0.7689    5.2385    4.6462 N   0  0  0  0  0  0  0  0  0  0  0  0
    0.9257    2.8355    4.8428 C   0  0  0  0  0  0  0  0  0  0  0  0
    1.5799    1.7210    5.3239 C   0  0  0  0  0  0  0  0  0  0  0  0
    3.3347   -3.7162    6.6007 P   0  0  0  0  0  0  0  0  0  0  0  0
    3.1068   -4.3042    8.1669 O   0  0  0  0  0  0  0  0  0  0  0  0
    4.5041   -4.4168    5.9339 O   0  0  0  0  0  0  0  0  0  0  0  0
    1.9740   -4.0415    5.6159 O   0  0  0  0  0  0  0  0  0  0  0  0
    1.1989   -4.9718    6.3025 C   0  0  0  0  0  0  0  0  0  0  0  0
   -0.0639   -5.3170    5.5398 C   0  0  0  0  0  0  0  0  0  0  0  0
   -0.7757   -6.2324    6.2611 O   0  0  0  0  0  0  0  0  0  0  0  0
    0.2294   -5.8867    4.1706 C   0  0  0  0  0  0  0  0  0  0  0  0
   -0.8247   -5.6167    3.3141 O   0  0  0  0  0  0  0  0  0  0  0  0
    0.2174   -7.3711    4.4664 C   0  0  0  0  0  0  0  0  0  0  0  0
   -0.7053   -7.4593    5.6329 C   0  0  0  0  0  0  0  0  0  0  0  0
   -0.3384   -8.5257    6.5436 N   0  0  0  0  0  0  0  0  0  0  0  0
    0.5537   -9.5088    6.4102 C   0  0  0  0  0  0  0  0  0  0  0  0
    0.5471  -10.2653    7.5235 N   0  0  0  0  0  0  0  0  0  0  0  0
   -0.3497   -9.7724    8.3786 C   0  0  0  0  0  0  0  0  0  0  0  0
   -0.8108  -10.0853    9.6431 C   0  0  0  0  0  0  0  0  0  0  0  0
   -0.3023  -11.0971   10.2245 O   0  0  0  0  0  0  0  0  0  0  0  0
   -1.7733   -9.3487   10.2589 N   0  0  0  0  0  0  0  0  0  0  0  0
   -2.3056   -8.2775    9.6324 C   0  0  0  0  0  0  0  0  0  0  0  0
   -3.3115   -7.4940   10.2566 N   0  0  0  0  0  0  0  0  0  0  0  0
   -1.8603   -7.9689    8.4018 N   0  0  0  0  0  0  0  0  0  0  0  0
   -0.9118   -8.6681    7.7565 C   0  0  0  0  0  0  0  0  0  0  0  0
   -0.3641   -4.8227    1.9085 P   0  0  0  0  0  0  0  0  0  0  0  0
   -0.9429   -5.7646    0.6093 O   0  0  0  0  0  0  0  0  0  0  0  0
   -1.0090   -3.4645    1.7898 O   0  0  0  0  0  0  0  0  0  0  0  0
    1.2931   -4.6760    1.7351 O   0  0  0  0  0  0  0  0  0  0  0  0
    1.7569   -3.3635    1.8785 C   0  0  0  0  0  0  0  0  0  0  0  0
    3.2438   -3.4022    1.7788 C   0  0  0  0  0  0  0  0  0  0  0  0
    3.8164   -2.1154    1.9168 O   0  0  0  0  0  0  0  0  0  0  0  0
    3.6131   -3.6524    0.3141 C   0  0  0  0  0  0  0  0  0  0  0  0
    3.0170   -2.6528   -0.4162 O   0  0  0  0  0  0  0  0  0  0  0  0
    5.1297   -3.3959    0.4544 C   0  0  0  0  0  0  0  0  0  0  0  0
    5.1118   -2.2185    1.3616 C   0  0  0  0  0  0  0  0  0  0  0  0
    5.5877   -0.9845    0.8287 N   0  0  0  0  0  0  0  0  0  0  0  0
    5.9764   -0.0182    1.6932 C   0  0  0  0  0  0  0  0  0  0  0  0
    5.9250   -0.1907    2.9491 O   0  0  0  0  0  0  0  0  0  0  0  0
    6.4393    1.1803    1.2672 N   0  0  0  0  0  0  0  0  0  0  0  0
    6.5401    1.4807   -0.0373 C   0  0  0  0  0  0  0  0  0  0  0  0
    6.9629    2.5768   -0.4772 O   0  0  0  0  0  0  0  0  0  0  0  0
    6.1533    0.5207   -0.9533 C   0  0  0  0  0  0  0  0  0  0  0  0
    6.2194    0.7382   -2.4249 C   0  0  0  0  0  0  0  0  0  0  0  0
    5.6875   -0.6865   -0.4775 C   0  0  0  0  0  0  0  0  0  0  0  0
    2.1612   -3.1419   -1.7564 P   0  0  0  0  0  0  0  0  0  0  0  0
    0.8143   -4.0446   -1.2797 O   0  0  0  0  0  0  0  0  0  0  0  0
    3.0020   -4.0011   -2.6732 O   0  0  0  0  0  0  0  0  0  0  0  0
    1.5634   -1.7819   -2.5697 O   0  0  0  0  0  0  0  0  0  0  0  0
    2.1712   -0.6595   -2.0688 C   0  0  0  0  0  0  0  0  0  0  0  0
    1.7807    0.6307   -2.7541 C   0  0  0  0  0  0  0  0  0  0  0  0
    2.5228    1.6347   -2.0876 O   0  0  0  0  0  0  0  0  0  0  0  0
    0.3333    0.9642   -2.4979 C   0  0  0  0  0  0  0  0  0  0  0  0
   -0.1158    0.2424   -1.4207 O   0  0  0  0  0  0  0  0  0  0  0  0
    0.3649    2.4674   -2.1735 C   0  0  0  0  0  0  0  0  0  0  0  0
    1.8062    2.7693   -2.3799 C   0  0  0  0  0  0  0  0  0  0  0  0
    2.2641    3.9485   -1.7062 N   0  0  0  0  0  0  0  0  0  0  0  0
    3.5375    4.3803   -1.7372 C   0  0  0  0  0  0  0  0  0  0  0  0
    3.6391    5.5045   -1.0113 N   0  0  0  0  0  0  0  0  0  0  0  0
    2.4461    5.8297   -0.4943 C   0  0  0  0  0  0  0  0  0  0  0  0
    1.9818    6.8597    0.3105 C   0  0  0  0  0  0  0  0  0  0  0  0
    2.8821    7.8557    0.7506 N   0  0  0  0  0  0  0  0  0  0  0  0
    0.6633    6.8611    0.6422 N   0  0  0  0  0  0  0  0  0  0  0  0
   -0.1722    5.8876    0.2012 C   0  0  0  0  0  0  0  0  0  0  0  0
    0.2965    4.8884   -0.5842 N   0  0  0  0  0  0  0  0  0  0  0  0
    1.5843    4.8304   -0.9460 C   0  0  0  0  0  0  0  0  0  0  0  0
   -1.5553   -0.5762   -1.7255 P   0  0  0  0  0  0  0  0  0  0  0  0
   -1.9940   -1.4540   -0.3495 O   0  0  0  0  0  0  0  0  0  0  0  0
   -1.4922   -1.5124   -2.8878 O   0  0  0  0  0  0  0  0  0  0  0  0
   -2.8173    0.5515   -1.9789 O   0  0  0  0  0  0  0  0  0  0  0  0
   -4.0035   -0.1332   -2.2226 C   0  0  0  0  0  0  0  0  0  0  0  0
   -5.1307    0.8387   -2.5014 C   0  0  0  0  0  0  0  0  0  0  0  0
   -5.3708    1.6944   -1.4615 O   0  0  0  0  0  0  0  0  0  0  0  0
   -4.8286    1.7011   -3.6883 C   0  0  0  0  0  0  0  0  0  0  0  0
   -5.9809    2.0115   -4.4086 O   0  0  0  0  0  0  0  0  0  0  0  0
   -4.2117    2.9228   -3.0591 C   0  0  0  0  0  0  0  0  0  0  0  0
   -4.7293    2.8884   -1.6607 C   0  0  0  0  0  0  0  0  0  0  0  0
   -5.7339    3.9309   -1.4778 N   0  0  0  0  0  0  0  0  0  0  0  0
   -7.0508    3.6640   -1.4010 C   0  0  0  0  0  0  0  0  0  0  0  0
   -7.3892    2.4448   -1.4968 O   0  0  0  0  0  0  0  0  0  0  0  0
   -7.9908    4.6107   -1.2319 N   0  0  0  0  0  0  0  0  0  0  0  0
   -7.6671    5.9117   -1.1266 C   0  0  0  0  0  0  0  0  0  0  0  0
   -8.6901    6.8824   -0.9481 N   0  0  0  0  0  0  0  0  0  0  0  0
   -6.3259    6.2255   -1.2007 C   0  0  0  0  0  0  0  0  0  0  0  0
   -5.3521    5.2351   -1.3769 C   0  0  0  0  0  0  0  0  0  0  0  0
   -5.7729    1.5815   -6.0203 P   0  0  0  0  0  0  0  0  0  0  0  0
   -7.1139    1.1341   -6.5674 O   0  0  0  0  0  0  0  0  0  0  0  0
   -4.7344    0.2357   -6.1714 O   0  0  0  0  0  0  0  0  0  0  0  0
   -5.1118    2.8223   -6.9525 O   0  0  0  0  0  0  0  0  0  0  0  0
   -3.7408    2.7435   -6.8786 C   0  0  0  0  0  0  0  0  0  0  0  0
   -3.0758    3.7655   -7.7789 C   0  0  0  0  0  0  0  0  0  0  0  0
   -3.3965    3.6239   -9.1137 O   0  0  0  0  0  0  0  0  0  0  0  0
   -1.5734    3.5814   -7.7645 C   0  0  0  0  0  0  0  0  0  0  0  0
   -0.9390    4.7220   -8.2543 O   0  0  0  0  0  0  0  0  0  0  0  0
   -1.3987    2.4808   -8.7767 C   0  0  0  0  0  0  0  0  0  0  0  0
   -2.6556    2.5519   -9.5997 C   0  0  0  0  0  0  0  0  0  0  0  0
   -3.3955    1.3170   -9.5880 N   0  0  0  0  0  0  0  0  0  0  0  0
   -2.9613    0.0570   -9.4181 C   0  0  0  0  0  0  0  0  0  0  0  0
   -3.9727   -0.8187   -9.4721 N   0  0  0  0  0  0  0  0  0  0  0  0
   -5.1126   -0.1211   -9.6842 C   0  0  0  0  0  0  0  0  0  0  0  0
   -6.4541   -0.4857   -9.8274 C   0  0  0  0  0  0  0  0  0  0  0  0
   -6.7685   -1.7001   -9.7593 O   0  0  0  0  0  0  0  0  0  0  0  0
   -7.3793    0.4937  -10.0369 N   0  0  0  0  0  0  0  0  0  0  0  0
   -6.9988    1.7805  -10.1027 C   0  0  0  0  0  0  0  0  0  0  0  0
   -7.9860    2.8058  -10.3243 N   0  0  0  0  0  0  0  0  0  0  0  0
   -5.7000    2.1185   -9.9625 N   0  0  0  0  0  0  0  0  0  0  0  0
   -4.7280    1.2109   -9.7533 C   0  0  0  0  0  0  0  0  0  0  0  0
    6.0705    0.7135    8.8220 H   0  0  0  0  0  0  0  0  0  0  0  0
    5.5135   -2.0244    8.9366 H   0  0  0  0  0  0  0  0  0  0  0  0
    5.8932   -1.4466    7.2667 H   0  0  0  0  0  0  0  0  0  0  0  0
    3.9448   -0.2796    9.3362 H   0  0  0  0  0  0  0  0  0  0  0  0
    2.6098   -2.0310    8.4114 H   0  0  0  0  0  0  0  0  0  0  0  0
    1.7099    0.1932    7.9143 H   0  0  0  0  0  0  0  0  0  0  0  0
    1.5610   -0.7710    6.3307 H   0  0  0  0  0  0  0  0  0  0  0  0
    3.7692   -0.0092    5.6883 H   0  0  0  0  0  0  0  0  0  0  0  0
    1.3075    5.9075    4.0422 H   0  0  0  0  0  0  0  0  0  0  0  0
   -0.2525    5.4104    4.8863 H   0  0  0  0  0  0  0  0  0  0  0  0
    0.0260    2.7256    4.2435 H   0  0  0  0  0  0  0  0  0  0  0  0
    1.1342    0.7615    5.0611 H   0  0  0  0  0  0  0  0  0  0  0  0
    1.7526   -5.8642    6.6196 H   0  0  0  0  0  0  0  0  0  0  0  0
    0.8730   -4.4568    7.2336 H   0  0  0  0  0  0  0  0  0  0  0  0
   -0.6869   -4.4175    5.3858 H   0  0  0  0  0  0  0  0  0  0  0  0
    1.2033   -5.5349    3.7731 H   0  0  0  0  0  0  0  0  0  0  0  0
   -0.1991   -7.9485    3.5949 H   0  0  0  0  0  0  0  0  0  0  0  0
    1.2405   -7.7569    4.6993 H   0  0  0  0  0  0  0  0  0  0  0  0
   -1.7220   -7.6973    5.2622 H   0  0  0  0  0  0  0  0  0  0  0  0
    1.1841   -9.6566    5.5193 H   0  0  0  0  0  0  0  0  0  0  0  0
   -3.4595   -7.4939   11.2821 H   0  0  0  0  0  0  0  0  0  0  0  0
   -3.9210   -6.8964    9.6458 H   0  0  0  0  0  0  0  0  0  0  0  0
   -2.2840   -7.1399    7.9377 H   0  0  0  0  0  0  0  0  0  0  0  0
    1.3674   -2.7213    1.0640 H   0  0  0  0  0  0  0  0  0  0  0  0
    1.3878   -2.9013    2.8170 H   0  0  0  0  0  0  0  0  0  0  0  0
    3.7232   -4.1224    2.4637 H   0  0  0  0  0  0  0  0  0  0  0  0
    3.4239   -4.6722   -0.0182 H   0  0  0  0  0  0  0  0  0  0  0  0
    5.6440   -3.3115   -0.4882 H   0  0  0  0  0  0  0  0  0  0  0  0
    5.5191   -4.3105    0.9566 H   0  0  0  0  0  0  0  0  0  0  0  0
    5.7638   -2.4607    2.2460 H   0  0  0  0  0  0  0  0  0  0  0  0
    6.7335    1.9123    1.9416 H   0  0  0  0  0  0  0  0  0  0  0  0
    7.0652    1.4044   -2.6881 H   0  0  0  0  0  0  0  0  0  0  0  0
    5.2968    1.1559   -2.8547 H   0  0  0  0  0  0  0  0  0  0  0  0
    6.4406   -0.2280   -2.9609 H   0  0  0  0  0  0  0  0  0  0  0  0
    5.3877   -1.4296   -1.2028 H   0  0  0  0  0  0  0  0  0  0  0  0
    3.2685   -0.8290   -2.1382 H   0  0  0  0  0  0  0  0  0  0  0  0
    1.9582   -0.6297   -0.9808 H   0  0  0  0  0  0  0  0  0  0  0  0
    2.0072    0.6153   -3.8285 H   0  0  0  0  0  0  0  0  0  0  0  0
   -0.3221    0.8085   -3.4023 H   0  0  0  0  0  0  0  0  0  0  0  0
   -0.0283    2.5827   -1.1668 H   0  0  0  0  0  0  0  0  0  0  0  0
   -0.3155    3.0070   -2.8660 H   0  0  0  0  0  0  0  0  0  0  0  0
    1.9490    2.9663   -3.4830 H   0  0  0  0  0  0  0  0  0  0  0  0
    4.3772    3.9358   -2.2452 H   0  0  0  0  0  0  0  0  0  0  0  0
    2.8830    8.8012    0.2928 H   0  0  0  0  0  0  0  0  0  0  0  0
    3.5623    7.6623    1.5428 H   0  0  0  0  0  0  0  0  0  0  0  0
   -1.2101    5.8936    0.4660 H   0  0  0  0  0  0  0  0  0  0  0  0
   -3.8888   -0.7691   -3.1224 H   0  0  0  0  0  0  0  0  0  0  0  0
   -4.2954   -0.7928   -1.3949 H   0  0  0  0  0  0  0  0  0  0  0  0
   -6.0437    0.2549   -2.7027 H   0  0  0  0  0  0  0  0  0  0  0  0
   -4.0666    1.2528   -4.3620 H   0  0  0  0  0  0  0  0  0  0  0  0
   -3.1200    2.9160   -3.1331 H   0  0  0  0  0  0  0  0  0  0  0  0
   -4.5734    3.7907   -3.6460 H   0  0  0  0  0  0  0  0  0  0  0  0
   -3.9117    3.0305   -0.9148 H   0  0  0  0  0  0  0  0  0  0  0  0
   -8.9860    7.4808   -1.7575 H   0  0  0  0  0  0  0  0  0  0  0  0
   -9.1150    6.9596    0.0102 H   0  0  0  0  0  0  0  0  0  0  0  0
   -6.0247    7.2509   -1.1215 H   0  0  0  0  0  0  0  0  0  0  0  0
   -4.3124    5.4694   -1.4352 H   0  0  0  0  0  0  0  0  0  0  0  0
   -3.4153    3.0053   -5.8487 H   0  0  0  0  0  0  0  0  0  0  0  0
   -3.3239    1.7536   -7.0990 H   0  0  0  0  0  0  0  0  0  0  0  0
   -3.3083    4.7951   -7.4386 H   0  0  0  0  0  0  0  0  0  0  0  0
   -1.1848    3.2816   -6.7718 H   0  0  0  0  0  0  0  0  0  0  0  0
   -0.7873    4.6640   -9.2195 H   0  0  0  0  0  0  0  0  0  0  0  0
   -1.4135    1.5174   -8.1944 H   0  0  0  0  0  0  0  0  0  0  0  0
   -0.4693    2.5527   -9.3429 H   0  0  0  0  0  0  0  0  0  0  0  0
   -2.3848    2.7887  -10.6506 H   0  0  0  0  0  0  0  0  0  0  0  0
   -1.9284   -0.2429   -9.2561 H   0  0  0  0  0  0  0  0  0  0  0  0
   -8.8967    2.7584   -9.8061 H   0  0  0  0  0  0  0  0  0  0  0  0
   -7.8004    3.5864  -10.9900 H   0  0  0  0  0  0  0  0  0  0  0  0
   -5.4896    3.1469  -10.0278 H   0  0  0  0  0  0  0  0  0  0  0  0
  1  2  1  0
  1121  1  0
  2  3  1  0
  2122  1  0
  2123  1  0
  3  4  1  0
  3  5  1  0
  3124  1  0
  4  8  1  0
  5  7  1  0
  5  6  1  0
  5125  1  0
  6 17  1  0
  7  8  1  0
  7126  1  0
  7127  1  0
  8  9  1  0
  8128  1  0
  9 16  1  0
  9 10  1  0
 10 12  1  0
 10 11  2  0
 12 13  2  0
 13 15  1  0
 13 14  1  0
 14129  1  0
 14130  1  0
 15 16  2  0
 15131  1  0
 16132  1  0
 17 20  1  0
 17 19  2  0
 17 18  1  0
 20 21  1  0
 21 22  1  0
 21133  1  0
 21134  1  0
 22 24  1  0
 22 23  1  0
 22135  1  0
 23 27  1  0
 24 25  1  0
 24 26  1  0
 24136  1  0
 25 39  1  0
 26 27  1  0
 26137  1  0
 26138  1  0
 27 28  1  0
 27139  1  0
 28 38  1  0
 28 29  1  0
 29 30  2  0
 29140  1  0
 30 31  1  0
 31 32  1  0
 31 38  2  0
 32 33  2  0
 32 34  1  0
 34 35  2  0
 35 36  1  0
 35 37  1  0
 36141  1  0
 36142  1  0
 37 38  1  0
 37143  1  0
 39 41  2  0
 39 42  1  0
 39 40  1  0
 42 43  1  0
 43 44  1  0
 43144  1  0
 43145  1  0
 44 46  1  0
 44 45  1  0
 44146  1  0
 45 49  1  0
 46 48  1  0
 46 47  1  0
 46147  1  0
 47 59  1  0
 48 49  1  0
 48148  1  0
 48149  1  0
 49 50  1  0
 49150  1  0
 50 51  1  0
 50 58  1  0
 51 53  1  0
 51 52  2  0
 53 54  1  0
 53151  1  0
 54 55  2  0
 54 56  1  0
 56 57  1  0
 56 58  2  0
 57152  1  0
 57153  1  0
 57154  1  0
 58155  1  0
 59 61  2  0
 59 62  1  0
 59 60  1  0
 62 63  1  0
 63 64  1  0
 63156  1  0
 63157  1  0
 64 66  1  0
 64 65  1  0
 64158  1  0
 65 69  1  0
 66 68  1  0
 66 67  1  0
 66159  1  0
 67 80  1  0
 68 69  1  0
 68160  1  0
 68161  1  0
 69 70  1  0
 69162  1  0
 70 79  1  0
 70 71  1  0
 71 72  2  0
 71163  1  0
 72 73  1  0
 73 79  2  0
 73 74  1  0
 74 76  2  0
 74 75  1  0
 75164  1  0
 75165  1  0
 76 77  1  0
 77 78  2  0
 77166  1  0
 78 79  1  0
 80 83  1  0
 80 82  2  0
 80 81  1  0
 83 84  1  0
 84 85  1  0
 84167  1  0
 84168  1  0
 85 87  1  0
 85 86  1  0
 85169  1  0
 86 90  1  0
 87 88  1  0
 87 89  1  0
 87170  1  0
 88 99  1  0
 89 90  1  0
 89171  1  0
 89172  1  0
 90 91  1  0
 90173  1  0
 91 98  1  0
 91 92  1  0
 92 93  2  0
 92 94  1  0
 94 95  2  0
 95 97  1  0
 95 96  1  0
 96174  1  0
 96175  1  0
 97 98  2  0
 97176  1  0
 98177  1  0
 99100  2  0
 99101  1  0
 99102  1  0
102103  1  0
103104  1  0
103178  1  0
103179  1  0
104105  1  0
104106  1  0
104180  1  0
105109  1  0
106108  1  0
106107  1  0
106181  1  0
107182  1  0
108109  1  0
108183  1  0
108184  1  0
109110  1  0
109185  1  0
110111  1  0
110120  1  0
111112  2  0
111186  1  0
112113  1  0
113114  1  0
113120  2  0
114115  2  0
114116  1  0
116117  2  0
117118  1  0
117119  1  0
118187  1  0
118188  1  0
119120  1  0
119189  1  0
M  CHG  5  18  -1  40  -1  60  -1  81  -1 101  -1
M  END
$$$$
DNA (5'-D(*CP*GP*TP*AP*CP*G)-3')
     RDKit          3D

189203  0  0  0  0  0  0  0  0999 V2000
    4.7374    1.2943   -3.2579 O   0  0  0  0  0  0  0  0  0  0  0  0
    4.7565    0.3890   -2.1992 C   0  0  0  0  0  0  0  0  0  0  0  0
    3.7647   -0.7210   -2.5035 C   0  0  0  0  0  0  0  0  0  0  0  0
    4.1007   -1.3883   -3.6813 O   0  0  0  0  0  0  0  0  0  0  0  0
    3.6789   -1.7285   -1.4087 C   0  0  0  0  0  0  0  0  0  0  0  0
    4.7977   -1.9436   -0.7035 O   0  0  0  0  0  0  0  0  0  0  0  0
    3.1823   -2.9292   -2.1962 C   0  0  0  0  0  0  0  0  0  0  0  0
    3.9408   -2.7450   -3.4847 C   0  0  0  0  0  0  0  0  0  0  0  0
    3.2704   -3.4249   -4.5726 N   0  0  0  0  0  0  0  0  0  0  0  0
    3.3346   -4.7718   -4.6199 C   0  0  0  0  0  0  0  0  0  0  0  0
    3.9459   -5.4602   -3.7575 O   0  0  0  0  0  0  0  0  0  0  0  0
    2.7189   -5.4414   -5.6361 N   0  0  0  0  0  0  0  0  0  0  0  0
    2.0494   -4.7595   -6.5886 C   0  0  0  0  0  0  0  0  0  0  0  0
    1.4318   -5.4969   -7.6318 N   0  0  0  0  0  0  0  0  0  0  0  0
    1.9651   -3.3621   -6.5668 C   0  0  0  0  0  0  0  0  0  0  0  0
    2.6094   -2.7168   -5.5093 C   0  0  0  0  0  0  0  0  0  0  0  0
    4.8016   -2.0598    0.9190 P   0  0  0  0  0  0  0  0  0  0  0  0
    3.7117   -3.2387    1.5274 O   0  0  0  0  0  0  0  0  0  0  0  0
    6.1638   -2.3502    1.5187 O   0  0  0  0  0  0  0  0  0  0  0  0
    4.2795   -0.6194    1.6303 O   0  0  0  0  0  0  0  0  0  0  0  0
    5.3065    0.3303    1.6782 C   0  0  0  0  0  0  0  0  0  0  0  0
    5.7928    0.5782    3.0576 C   0  0  0  0  0  0  0  0  0  0  0  0
    6.8510    1.5314    3.1343 O   0  0  0  0  0  0  0  0  0  0  0  0
    4.8382    1.2406    4.0028 C   0  0  0  0  0  0  0  0  0  0  0  0
    3.7539    0.5129    4.4061 O   0  0  0  0  0  0  0  0  0  0  0  0
    5.8115    1.3431    5.2308 C   0  0  0  0  0  0  0  0  0  0  0  0
    7.1204    1.4730    4.5016 C   0  0  0  0  0  0  0  0  0  0  0  0
    7.8686    2.5674    5.0230 N   0  0  0  0  0  0  0  0  0  0  0  0
    8.6646    2.4663    6.1267 C   0  0  0  0  0  0  0  0  0  0  0  0
    9.2168    3.6519    6.3609 N   0  0  0  0  0  0  0  0  0  0  0  0
    8.8031    4.5246    5.4389 C   0  0  0  0  0  0  0  0  0  0  0  0
    9.0470    5.8675    5.1916 C   0  0  0  0  0  0  0  0  0  0  0  0
    9.8239    6.4741    5.9666 O   0  0  0  0  0  0  0  0  0  0  0  0
    8.4483    6.4354    4.1483 N   0  0  0  0  0  0  0  0  0  0  0  0
    7.6056    5.7673    3.3080 C   0  0  0  0  0  0  0  0  0  0  0  0
    6.9980    6.4589    2.2026 N   0  0  0  0  0  0  0  0  0  0  0  0
    7.3640    4.4648    3.5413 N   0  0  0  0  0  0  0  0  0  0  0  0
    7.9386    3.8465    4.5728 C   0  0  0  0  0  0  0  0  0  0  0  0
    2.5222    1.6002    4.7960 P   0  0  0  0  0  0  0  0  0  0  0  0
    1.4347    0.8398    5.8270 O   0  0  0  0  0  0  0  0  0  0  0  0
    3.2008    2.6846    5.6494 O   0  0  0  0  0  0  0  0  0  0  0  0
    1.7932    2.3043    3.4447 O   0  0  0  0  0  0  0  0  0  0  0  0
    1.2404    3.4856    3.8590 C   0  0  0  0  0  0  0  0  0  0  0  0
    0.7921    4.4474    2.8436 C   0  0  0  0  0  0  0  0  0  0  0  0
    1.8388    4.8609    1.9946 O   0  0  0  0  0  0  0  0  0  0  0  0
   -0.2482    4.0395    1.8636 C   0  0  0  0  0  0  0  0  0  0  0  0
    0.1578    2.9763    1.1075 O   0  0  0  0  0  0  0  0  0  0  0  0
   -0.2119    5.3362    0.9895 C   0  0  0  0  0  0  0  0  0  0  0  0
    1.2184    5.6401    1.0035 C   0  0  0  0  0  0  0  0  0  0  0  0
    1.9626    5.5690   -0.2049 N   0  0  0  0  0  0  0  0  0  0  0  0
    3.3235    5.6729   -0.0886 C   0  0  0  0  0  0  0  0  0  0  0  0
    3.8344    5.8241    1.0735 O   0  0  0  0  0  0  0  0  0  0  0  0
    4.1307    5.6241   -1.1458 N   0  0  0  0  0  0  0  0  0  0  0  0
    3.6491    5.4699   -2.3924 C   0  0  0  0  0  0  0  0  0  0  0  0
    4.4682    5.4325   -3.3299 O   0  0  0  0  0  0  0  0  0  0  0  0
    2.2889    5.3626   -2.5451 C   0  0  0  0  0  0  0  0  0  0  0  0
    1.7062    5.1872   -3.8878 C   0  0  0  0  0  0  0  0  0  0  0  0
    1.4787    5.4163   -1.4344 C   0  0  0  0  0  0  0  0  0  0  0  0
   -1.1120    1.9839    0.5512 P   0  0  0  0  0  0  0  0  0  0  0  0
   -2.5598    2.6812    1.0667 O   0  0  0  0  0  0  0  0  0  0  0  0
   -1.0673    1.8751   -0.9620 O   0  0  0  0  0  0  0  0  0  0  0  0
   -0.9484    0.4886    1.2596 O   0  0  0  0  0  0  0  0  0  0  0  0
    0.2848   -0.0934    1.0899 C   0  0  0  0  0  0  0  0  0  0  0  0
    0.3215   -1.4274    1.7117 C   0  0  0  0  0  0  0  0  0  0  0  0
   -0.5479   -2.3920    1.1965 O   0  0  0  0  0  0  0  0  0  0  0  0
   -0.2328   -1.4264    3.1599 C   0  0  0  0  0  0  0  0  0  0  0  0
   -1.5161   -1.1410    3.2259 O   0  0  0  0  0  0  0  0  0  0  0  0
    0.0781   -2.9138    3.4151 C   0  0  0  0  0  0  0  0  0  0  0  0
   -0.5035   -3.4526    2.0984 C   0  0  0  0  0  0  0  0  0  0  0  0
   -1.7993   -4.0479    2.3594 N   0  0  0  0  0  0  0  0  0  0  0  0
   -3.0219   -3.5115    2.2160 C   0  0  0  0  0  0  0  0  0  0  0  0
   -3.9736   -4.4168    2.5887 N   0  0  0  0  0  0  0  0  0  0  0  0
   -3.3365   -5.5303    2.9672 C   0  0  0  0  0  0  0  0  0  0  0  0
   -3.8738   -6.7148    3.4249 C   0  0  0  0  0  0  0  0  0  0  0  0
   -5.2808   -6.8650    3.5501 N   0  0  0  0  0  0  0  0  0  0  0  0
   -2.9911   -7.6856    3.7439 N   0  0  0  0  0  0  0  0  0  0  0  0
   -1.6602   -7.4930    3.6146 C   0  0  0  0  0  0  0  0  0  0  0  0
   -1.1574   -6.3252    3.1644 N   0  0  0  0  0  0  0  0  0  0  0  0
   -1.9835   -5.3136    2.8294 C   0  0  0  0  0  0  0  0  0  0  0  0
   -2.2772   -0.0779    4.1554 P   0  0  0  0  0  0  0  0  0  0  0  0
   -1.3054    1.2595    4.4947 O   0  0  0  0  0  0  0  0  0  0  0  0
   -2.6792   -0.6149    5.5424 O   0  0  0  0  0  0  0  0  0  0  0  0
   -3.6829    0.5951    3.4332 O   0  0  0  0  0  0  0  0  0  0  0  0
   -4.6359    0.8662    4.3715 C   0  0  0  0  0  0  0  0  0  0  0  0
   -5.8156    1.6553    3.9309 C   0  0  0  0  0  0  0  0  0  0  0  0
   -5.4853    2.9037    3.4196 O   0  0  0  0  0  0  0  0  0  0  0  0
   -6.6454    1.0521    2.8471 C   0  0  0  0  0  0  0  0  0  0  0  0
   -5.8770    0.7336    1.7557 O   0  0  0  0  0  0  0  0  0  0  0  0
   -7.5589    2.2596    2.5295 C   0  0  0  0  0  0  0  0  0  0  0  0
   -6.6299    3.3829    2.8088 C   0  0  0  0  0  0  0  0  0  0  0  0
   -6.3308    4.2213    1.6682 N   0  0  0  0  0  0  0  0  0  0  0  0
   -5.9549    5.4941    1.8789 C   0  0  0  0  0  0  0  0  0  0  0  0
   -5.8691    5.9487    3.0586 O   0  0  0  0  0  0  0  0  0  0  0  0
   -5.6526    6.3518    0.8926 N   0  0  0  0  0  0  0  0  0  0  0  0
   -5.7291    5.9234   -0.3746 C   0  0  0  0  0  0  0  0  0  0  0  0
   -5.4148    6.7741   -1.4871 N   0  0  0  0  0  0  0  0  0  0  0  0
   -6.1048    4.6369   -0.6813 C   0  0  0  0  0  0  0  0  0  0  0  0
   -6.4015    3.8083    0.3954 C   0  0  0  0  0  0  0  0  0  0  0  0
   -6.3822   -0.7121    1.0264 P   0  0  0  0  0  0  0  0  0  0  0  0
   -6.8046   -1.7144    2.0835 O   0  0  0  0  0  0  0  0  0  0  0  0
   -7.7031   -0.4526    0.0001 O   0  0  0  0  0  0  0  0  0  0  0  0
   -5.0877   -1.3526    0.1649 O   0  0  0  0  0  0  0  0  0  0  0  0
   -5.0701   -1.0260   -1.1709 C   0  0  0  0  0  0  0  0  0  0  0  0
   -4.0172   -1.8874   -1.8434 C   0  0  0  0  0  0  0  0  0  0  0  0
   -3.8997   -1.6387   -3.2087 O   0  0  0  0  0  0  0  0  0  0  0  0
   -4.4850   -3.3488   -1.8883 C   0  0  0  0  0  0  0  0  0  0  0  0
   -4.3420   -3.9889   -0.6764 O   0  0  0  0  0  0  0  0  0  0  0  0
   -3.5581   -3.9162   -2.9464 C   0  0  0  0  0  0  0  0  0  0  0  0
   -2.9727   -2.6448   -3.5591 C   0  0  0  0  0  0  0  0  0  0  0  0
   -2.8470   -2.8112   -4.9800 N   0  0  0  0  0  0  0  0  0  0  0  0
   -2.7036   -4.0082   -5.5765 C   0  0  0  0  0  0  0  0  0  0  0  0
   -2.6077   -3.8476   -6.9093 N   0  0  0  0  0  0  0  0  0  0  0  0
   -2.6918   -2.5335   -7.1644 C   0  0  0  0  0  0  0  0  0  0  0  0
   -2.6638   -1.7446   -8.3001 C   0  0  0  0  0  0  0  0  0  0  0  0
   -2.5292   -2.3119   -9.4130 O   0  0  0  0  0  0  0  0  0  0  0  0
   -2.7791   -0.4191   -8.1933 N   0  0  0  0  0  0  0  0  0  0  0  0
   -2.9211    0.1791   -7.0046 C   0  0  0  0  0  0  0  0  0  0  0  0
   -3.0367    1.5883   -6.8481 N   0  0  0  0  0  0  0  0  0  0  0  0
   -2.9536   -0.5535   -5.8741 N   0  0  0  0  0  0  0  0  0  0  0  0
   -2.8403   -1.8885   -5.9571 C   0  0  0  0  0  0  0  0  0  0  0  0
    4.8176    0.8080   -4.1394 H   0  0  0  0  0  0  0  0  0  0  0  0
    5.7666   -0.0118   -1.9950 H   0  0  0  0  0  0  0  0  0  0  0  0
    4.4499    0.9704   -1.3089 H   0  0  0  0  0  0  0  0  0  0  0  0
    2.7853   -0.2291   -2.6858 H   0  0  0  0  0  0  0  0  0  0  0  0
    2.8450   -1.4700   -0.7312 H   0  0  0  0  0  0  0  0  0  0  0  0
    3.3062   -3.8877   -1.7016 H   0  0  0  0  0  0  0  0  0  0  0  0
    2.1050   -2.7967   -2.4184 H   0  0  0  0  0  0  0  0  0  0  0  0
    4.9591   -3.1953   -3.4412 H   0  0  0  0  0  0  0  0  0  0  0  0
    0.3909   -5.7128   -7.6415 H   0  0  0  0  0  0  0  0  0  0  0  0
    1.9695   -5.8758   -8.4577 H   0  0  0  0  0  0  0  0  0  0  0  0
    1.4326   -2.8197   -7.3272 H   0  0  0  0  0  0  0  0  0  0  0  0
    2.5588   -1.6587   -5.4629 H   0  0  0  0  0  0  0  0  0  0  0  0
    6.1164    0.1476    0.9679 H   0  0  0  0  0  0  0  0  0  0  0  0
    4.8395    1.2972    1.3306 H   0  0  0  0  0  0  0  0  0  0  0  0
    6.1693   -0.4003    3.4725 H   0  0  0  0  0  0  0  0  0  0  0  0
    4.6002    2.2610    3.6830 H   0  0  0  0  0  0  0  0  0  0  0  0
    5.5348    2.1795    5.8694 H   0  0  0  0  0  0  0  0  0  0  0  0
    5.7771    0.3516    5.7472 H   0  0  0  0  0  0  0  0  0  0  0  0
    7.7321    0.5310    4.6410 H   0  0  0  0  0  0  0  0  0  0  0  0
    8.8403    1.5748    6.7360 H   0  0  0  0  0  0  0  0  0  0  0  0
    6.1100    7.0195    2.3709 H   0  0  0  0  0  0  0  0  0  0  0  0
    7.4275    6.4073    1.2528 H   0  0  0  0  0  0  0  0  0  0  0  0
    6.7256    3.9103    2.9228 H   0  0  0  0  0  0  0  0  0  0  0  0
    2.0503    4.0037    4.4556 H   0  0  0  0  0  0  0  0  0  0  0  0
    0.4238    3.3536    4.6035 H   0  0  0  0  0  0  0  0  0  0  0  0
    0.4212    5.3623    3.4058 H   0  0  0  0  0  0  0  0  0  0  0  0
   -1.2826    3.9406    2.2578 H   0  0  0  0  0  0  0  0  0  0  0  0
   -0.7957    6.0734    1.6227 H   0  0  0  0  0  0  0  0  0  0  0  0
   -0.7502    5.2281    0.0684 H   0  0  0  0  0  0  0  0  0  0  0  0
    1.3438    6.7008    1.3850 H   0  0  0  0  0  0  0  0  0  0  0  0
    5.1816    5.7078   -1.0075 H   0  0  0  0  0  0  0  0  0  0  0  0
    2.5090    4.9278   -4.5918 H   0  0  0  0  0  0  0  0  0  0  0  0
    0.9425    4.3811   -3.9293 H   0  0  0  0  0  0  0  0  0  0  0  0
    1.2352    6.1562   -4.2110 H   0  0  0  0  0  0  0  0  0  0  0  0
    0.4302    5.3318   -1.5677 H   0  0  0  0  0  0  0  0  0  0  0  0
    1.0300    0.5431    1.6067 H   0  0  0  0  0  0  0  0  0  0  0  0
    0.6086   -0.0955    0.0167 H   0  0  0  0  0  0  0  0  0  0  0  0
    1.3190   -1.8990    1.7818 H   0  0  0  0  0  0  0  0  0  0  0  0
    0.4267   -0.8392    3.7641 H   0  0  0  0  0  0  0  0  0  0  0  0
    1.1615   -3.1064    3.3877 H   0  0  0  0  0  0  0  0  0  0  0  0
   -0.3564   -3.3180    4.3066 H   0  0  0  0  0  0  0  0  0  0  0  0
    0.1281   -4.2456    1.6553 H   0  0  0  0  0  0  0  0  0  0  0  0
   -3.3057   -2.5357    1.8612 H   0  0  0  0  0  0  0  0  0  0  0  0
   -5.6542   -6.7469    4.5401 H   0  0  0  0  0  0  0  0  0  0  0  0
   -5.9190   -7.0722    2.7562 H   0  0  0  0  0  0  0  0  0  0  0  0
   -1.0066   -8.3016    3.8806 H   0  0  0  0  0  0  0  0  0  0  0  0
   -5.0243   -0.1039    4.7787 H   0  0  0  0  0  0  0  0  0  0  0  0
   -4.1979    1.3989    5.2487 H   0  0  0  0  0  0  0  0  0  0  0  0
   -6.4970    1.7844    4.8262 H   0  0  0  0  0  0  0  0  0  0  0  0
   -7.3166    0.2210    3.1621 H   0  0  0  0  0  0  0  0  0  0  0  0
   -8.4100    2.2246    3.2794 H   0  0  0  0  0  0  0  0  0  0  0  0
   -8.0063    2.2046    1.5474 H   0  0  0  0  0  0  0  0  0  0  0  0
   -7.1424    4.0764    3.5421 H   0  0  0  0  0  0  0  0  0  0  0  0
   -4.8613    6.3926   -2.2639 H   0  0  0  0  0  0  0  0  0  0  0  0
   -5.7601    7.7563   -1.4776 H   0  0  0  0  0  0  0  0  0  0  0  0
   -6.1705    4.2829   -1.7104 H   0  0  0  0  0  0  0  0  0  0  0  0
   -6.6925    2.8055    0.1506 H   0  0  0  0  0  0  0  0  0  0  0  0
   -4.7813    0.0307   -1.3568 H   0  0  0  0  0  0  0  0  0  0  0  0
   -6.0561   -1.2890   -1.6007 H   0  0  0  0  0  0  0  0  0  0  0  0
   -3.0297   -1.8020   -1.3917 H   0  0  0  0  0  0  0  0  0  0  0  0
   -5.5329   -3.3117   -2.2618 H   0  0  0  0  0  0  0  0  0  0  0  0
   -4.8512   -4.8263   -0.6994 H   0  0  0  0  0  0  0  0  0  0  0  0
   -4.1167   -4.4689   -3.7338 H   0  0  0  0  0  0  0  0  0  0  0  0
   -2.7979   -4.5559   -2.4779 H   0  0  0  0  0  0  0  0  0  0  0  0
   -1.9992   -2.4500   -3.0480 H   0  0  0  0  0  0  0  0  0  0  0  0
   -2.6666   -4.9585   -5.0651 H   0  0  0  0  0  0  0  0  0  0  0  0
   -2.4502    2.0239   -6.1142 H   0  0  0  0  0  0  0  0  0  0  0  0
   -3.6959    2.0972   -7.4750 H   0  0  0  0  0  0  0  0  0  0  0  0
   -3.0634   -0.1029   -4.9410 H   0  0  0  0  0  0  0  0  0  0  0  0
  1  2  1  0
  1121  1  0
  2  3  1  0
  2122  1  0
  2123  1  0
  3  4  1  0
  3  5  1  0
  3124  1  0
  4  8  1  0
  5  7  1  0
  5  6  1  0
  5125  1  0
  6 17  1  0
  7  8  1  0
  7126  1  0
  7127  1  0
  8  9  1  0
  8128  1  0
  9 16  1  0
  9 10  1  0
 10 12  1  0
 10 11  2  0
 12 13  2  0
 13 15  1  0
 13 14  1  0
 14129  1  0
 14130  1  0
 15 16  2  0
 15131  1  0
 16132  1  0
 17 20  1  0
 17 19  2  0
 17 18  1  0
 20 21  1  0
 21 22  1  0
 21133  1  0
 21134  1  0
 22 24  1  0
 22 23  1  0
 22135  1  0
 23 27  1  0
 24 25  1  0
 24 26  1  0
 24136  1  0
 25 39  1  0
 26 27  1  0
 26137  1  0
 26138  1  0
 27 28  1  0
 27139  1  0
 28 38  1  0
 28 29  1  0
 29 30  2  0
 29140  1  0
 30 31  1  0
 31 32  1  0
 31 38  2  0
 32 33  2  0
 32 34  1  0
 34 35  2  0
 35 36  1  0
 35 37  1  0
 36141  1  0
 36142  1  0
 37 38  1  0
 37143  1  0
 39 41  2  0
 39 42  1  0
 39 40  1  0
 42 43  1  0
 43 44  1  0
 43144  1  0
 43145  1  0
 44 46  1  0
 44 45  1  0
 44146  1  0
 45 49  1  0
 46 48  1  0
 46 47  1  0
 46147  1  0
 47 59  1  0
 48 49  1  0
 48148  1  0
 48149  1  0
 49 50  1  0
 49150  1  0
 50 51  1  0
 50 58  1  0
 51 53  1  0
 51 52  2  0
 53 54  1  0
 53151  1  0
 54 55  2  0
 54 56  1  0
 56 57  1  0
 56 58  2  0
 57152  1  0
 57153  1  0
 57154  1  0
 58155  1  0
 59 61  2  0
 59 62  1  0
 59 60  1  0
 62 63  1  0
 63 64  1  0
 63156  1  0
 63157  1  0
 64 66  1  0
 64 65  1  0
 64158  1  0
 65 69  1  0
 66 68  1  0
 66 67  1  0
 66159  1  0
 67 80  1  0
 68 69  1  0
 68160  1  0
 68161  1  0
 69 70  1  0
 69162  1  0
 70 79  1  0
 70 71  1  0
 71 72  2  0
 71163  1  0
 72 73  1  0
 73 79  2  0
 73 74  1  0
 74 76  2  0
 74 75  1  0
 75164  1  0
 75165  1  0
 76 77  1  0
 77 78  2  0
 77166  1  0
 78 79  1  0
 80 83  1  0
 80 82  2  0
 80 81  1  0
 83 84  1  0
 84 85  1  0
 84167  1  0
 84168  1  0
 85 87  1  0
 85 86  1  0
 85169  1  0
 86 90  1  0
 87 88  1  0
 87 89  1  0
 87170  1  0
 88 99  1  0
 89 90  1  0
 89171  1  0
 89172  1  0
 90 91  1  0
 90173  1  0
 91 98  1  0
 91 92  1  0
 92 93  2  0
 92 94  1  0
 94 95  2  0
 95 97  1  0
 95 96  1  0
 96174  1  0
 96175  1  0
 97 98  2  0
 97176  1  0
 98177  1  0
 99100  2  0
 99101  1  0
 99102  1  0
102103  1  0
103104  1  0
103178  1  0
103179  1  0
104105  1  0
104106  1  0
104180  1  0
105109  1  0
106108  1  0
106107  1  0
106181  1  0
107182  1  0
108109  1  0
108183  1  0
108184  1  0
109110  1  0
109185  1  0
110111  1  0
110120  1  0
111112  2  0
111186  1  0
112113  1  0
113114  1  0
113120  2  0
114115  2  0
114116  1  0
116117  2  0
117118  1  0
117119  1  0
118187  1  0
118188  1  0
119120  1  0
119189  1  0
M  CHG  5  18  -1  40  -1  60  -1  81  -1 101  -1
M  END
$$$$
DNA (5'-D(*CP*GP*TP*AP*CP*G)-3')
     RDKit          3D

189203  0  0  0  0  0  0  0  0999 V2000
    2.5694    2.8668    4.7809 O   0  0  0  0  0  0  0  0  0  0  0  0
    1.2507    3.0616    4.3843 C   0  0  0  0  0  0  0  0  0  0  0  0
    1.1742    3.4204    2.9142 C   0  0  0  0  0  0  0  0  0  0  0  0
    1.9046    4.5934    2.7274 O   0  0  0  0  0  0  0  0  0  0  0  0
   -0.2169    3.6856    2.4573 C   0  0  0  0  0  0  0  0  0  0  0  0
   -1.2259    3.0740    3.1493 O   0  0  0  0  0  0  0  0  0  0  0  0
   -0.2471    5.2208    2.5878 C   0  0  0  0  0  0  0  0  0  0  0  0
    1.1471    5.4751    1.9946 C   0  0  0  0  0  0  0  0  0  0  0  0
    1.5598    6.8373    2.1235 N   0  0  0  0  0  0  0  0  0  0  0  0
    1.0769    7.7232    1.2230 C   0  0  0  0  0  0  0  0  0  0  0  0
    0.2869    7.3415    0.3027 O   0  0  0  0  0  0  0  0  0  0  0  0
    1.3870    9.0290    1.2337 N   0  0  0  0  0  0  0  0  0  0  0  0
    2.2204    9.4643    2.1923 C   0  0  0  0  0  0  0  0  0  0  0  0
    2.5357   10.8536    2.1819 N   0  0  0  0  0  0  0  0  0  0  0  0
    2.7436    8.5898    3.1422 C   0  0  0  0  0  0  0  0  0  0  0  0
    2.3992    7.2532    3.0967 C   0  0  0  0  0  0  0  0  0  0  0  0
   -2.2873    2.4284    1.9997 P   0  0  0  0  0  0  0  0  0  0  0  0
   -1.3412    1.9201    0.6798 O   0  0  0  0  0  0  0  0  0  0  0  0
   -3.2263    3.5413    1.5905 O   0  0  0  0  0  0  0  0  0  0  0  0
   -3.2041    1.1515    2.5555 O   0  0  0  0  0  0  0  0  0  0  0  0
   -2.8033   -0.0098    1.9489 C   0  0  0  0  0  0  0  0  0  0  0  0
   -3.5349   -1.2495    2.3956 C   0  0  0  0  0  0  0  0  0  0  0  0
   -3.4183   -1.4876    3.7405 O   0  0  0  0  0  0  0  0  0  0  0  0
   -4.9809   -1.2885    2.0979 C   0  0  0  0  0  0  0  0  0  0  0  0
   -5.1942   -1.8927    0.8559 O   0  0  0  0  0  0  0  0  0  0  0  0
   -5.5464   -2.1814    3.2123 C   0  0  0  0  0  0  0  0  0  0  0  0
   -4.2570   -2.5998    3.9064 C   0  0  0  0  0  0  0  0  0  0  0  0
   -4.4900   -2.8963    5.2995 N   0  0  0  0  0  0  0  0  0  0  0  0
   -5.7207   -2.9690    5.8659 C   0  0  0  0  0  0  0  0  0  0  0  0
   -5.5825   -3.2628    7.1830 N   0  0  0  0  0  0  0  0  0  0  0  0
   -4.2689   -3.3745    7.4431 C   0  0  0  0  0  0  0  0  0  0  0  0
   -3.6460   -3.6643    8.6345 C   0  0  0  0  0  0  0  0  0  0  0  0
   -4.2522   -3.8747    9.7118 O   0  0  0  0  0  0  0  0  0  0  0  0
   -2.2894   -3.7171    8.6011 N   0  0  0  0  0  0  0  0  0  0  0  0
   -1.6067   -3.4923    7.4435 C   0  0  0  0  0  0  0  0  0  0  0  0
   -0.1921   -3.5763    7.5287 N   0  0  0  0  0  0  0  0  0  0  0  0
   -2.2564   -3.2098    6.2906 N   0  0  0  0  0  0  0  0  0  0  0  0
   -3.5991   -3.1437    6.2611 C   0  0  0  0  0  0  0  0  0  0  0  0
   -6.3120   -1.1042   -0.1022 P   0  0  0  0  0  0  0  0  0  0  0  0
   -7.0840    0.1691    0.7010 O   0  0  0  0  0  0  0  0  0  0  0  0
   -7.4030   -2.1180   -0.4328 O   0  0  0  0  0  0  0  0  0  0  0  0
   -5.6837   -0.6019   -1.5868 O   0  0  0  0  0  0  0  0  0  0  0  0
   -6.6798   -0.4117   -2.5439 C   0  0  0  0  0  0  0  0  0  0  0  0
   -6.1273    0.3922   -3.7106 C   0  0  0  0  0  0  0  0  0  0  0  0
   -7.0210    0.6477   -4.7056 O   0  0  0  0  0  0  0  0  0  0  0  0
   -5.6475    1.7102   -3.1468 C   0  0  0  0  0  0  0  0  0  0  0  0
   -4.4071    1.9934   -3.6794 O   0  0  0  0  0  0  0  0  0  0  0  0
   -6.6915    2.6752   -3.5765 C   0  0  0  0  0  0  0  0  0  0  0  0
   -7.2929    1.9819   -4.7755 C   0  0  0  0  0  0  0  0  0  0  0  0
   -6.8927    2.6553   -5.9730 N   0  0  0  0  0  0  0  0  0  0  0  0
   -7.5670    3.7925   -6.3146 C   0  0  0  0  0  0  0  0  0  0  0  0
   -8.5060    4.1930   -5.5544 O   0  0  0  0  0  0  0  0  0  0  0  0
   -7.2542    4.4877   -7.4328 N   0  0  0  0  0  0  0  0  0  0  0  0
   -6.2662    4.0854   -8.2514 C   0  0  0  0  0  0  0  0  0  0  0  0
   -5.9444    4.7070   -9.3052 O   0  0  0  0  0  0  0  0  0  0  0  0
   -5.5821    2.9393   -7.9121 C   0  0  0  0  0  0  0  0  0  0  0  0
   -4.4731    2.4630   -8.8054 C   0  0  0  0  0  0  0  0  0  0  0  0
   -5.8837    2.2193   -6.7826 C   0  0  0  0  0  0  0  0  0  0  0  0
   -3.2015    2.0352   -2.4914 P   0  0  0  0  0  0  0  0  0  0  0  0
   -3.9700    1.8946   -0.9944 O   0  0  0  0  0  0  0  0  0  0  0  0
   -2.4765    3.3486   -2.5941 O   0  0  0  0  0  0  0  0  0  0  0  0
   -2.1381    0.7223   -2.6743 O   0  0  0  0  0  0  0  0  0  0  0  0
   -1.6491    0.6737   -3.9835 C   0  0  0  0  0  0  0  0  0  0  0  0
   -0.8680   -0.5989   -4.1776 C   0  0  0  0  0  0  0  0  0  0  0  0
   -0.4133   -0.5714   -5.4960 O   0  0  0  0  0  0  0  0  0  0  0  0
    0.2981   -0.7917   -3.2936 C   0  0  0  0  0  0  0  0  0  0  0  0
    0.0740   -1.6693   -2.2060 O   0  0  0  0  0  0  0  0  0  0  0  0
    1.2240   -1.6209   -4.2116 C   0  0  0  0  0  0  0  0  0  0  0  0
    0.8874   -0.9781   -5.5372 C   0  0  0  0  0  0  0  0  0  0  0  0
    1.8677    0.0277   -5.8003 N   0  0  0  0  0  0  0  0  0  0  0  0
    1.8792    1.3302   -5.5145 C   0  0  0  0  0  0  0  0  0  0  0  0
    3.0197    1.9157   -5.9445 N   0  0  0  0  0  0  0  0  0  0  0  0
    3.7689    0.9728   -6.5238 C   0  0  0  0  0  0  0  0  0  0  0  0
    5.0104    1.0342   -7.1187 C   0  0  0  0  0  0  0  0  0  0  0  0
    5.6781    2.2847   -7.1664 N   0  0  0  0  0  0  0  0  0  0  0  0
    5.5357   -0.1040   -7.6296 N   0  0  0  0  0  0  0  0  0  0  0  0
    4.8345   -1.2507   -7.5417 C   0  0  0  0  0  0  0  0  0  0  0  0
    3.6060   -1.3012   -6.9508 N   0  0  0  0  0  0  0  0  0  0  0  0
    3.0528   -0.2013   -6.4344 C   0  0  0  0  0  0  0  0  0  0  0  0
    0.9873   -1.0925   -0.8975 P   0  0  0  0  0  0  0  0  0  0  0  0
    2.6348   -1.5209   -1.1000 O   0  0  0  0  0  0  0  0  0  0  0  0
    0.9129    0.4080   -0.7979 O   0  0  0  0  0  0  0  0  0  0  0  0
    0.4899   -1.7678    0.5439 O   0  0  0  0  0  0  0  0  0  0  0  0
    1.5396   -2.3478    1.2544 C   0  0  0  0  0  0  0  0  0  0  0  0
    1.0352   -2.8944    2.5618 C   0  0  0  0  0  0  0  0  0  0  0  0
    0.4743   -1.8960    3.3629 O   0  0  0  0  0  0  0  0  0  0  0  0
    2.1333   -3.5389    3.3287 C   0  0  0  0  0  0  0  0  0  0  0  0
    1.9771   -4.8792    3.5989 O   0  0  0  0  0  0  0  0  0  0  0  0
    2.1916   -2.6985    4.5908 C   0  0  0  0  0  0  0  0  0  0  0  0
    1.5223   -1.4222    4.1309 C   0  0  0  0  0  0  0  0  0  0  0  0
    1.0704   -0.7029    5.3017 N   0  0  0  0  0  0  0  0  0  0  0  0
    1.9850   -0.2849    6.2039 C   0  0  0  0  0  0  0  0  0  0  0  0
    3.2224   -0.5022    6.0618 O   0  0  0  0  0  0  0  0  0  0  0  0
    1.5502    0.3886    7.2918 N   0  0  0  0  0  0  0  0  0  0  0  0
    0.2463    0.6464    7.4903 C   0  0  0  0  0  0  0  0  0  0  0  0
   -0.1874    1.3620    8.6459 N   0  0  0  0  0  0  0  0  0  0  0  0
   -0.6947    0.2148    6.5584 C   0  0  0  0  0  0  0  0  0  0  0  0
   -0.2407   -0.4742    5.4474 C   0  0  0  0  0  0  0  0  0  0  0  0
    3.2368   -5.8712    3.1750 P   0  0  0  0  0  0  0  0  0  0  0  0
    3.9579   -6.2600    4.4726 O   0  0  0  0  0  0  0  0  0  0  0  0
    2.7500   -7.3194    2.4600 O   0  0  0  0  0  0  0  0  0  0  0  0
    4.4156   -5.0784    2.2444 O   0  0  0  0  0  0  0  0  0  0  0  0
    5.6568   -5.7011    2.3398 C   0  0  0  0  0  0  0  0  0  0  0  0
    6.6941   -5.0350    1.4642 C   0  0  0  0  0  0  0  0  0  0  0  0
    6.3400   -5.0577    0.1258 O   0  0  0  0  0  0  0  0  0  0  0  0
    7.9679   -5.8373    1.5783 C   0  0  0  0  0  0  0  0  0  0  0  0
    8.7440   -5.2700    2.5918 O   0  0  0  0  0  0  0  0  0  0  0  0
    8.6232   -5.5648    0.2457 C   0  0  0  0  0  0  0  0  0  0  0  0
    7.5140   -5.0756   -0.6091 C   0  0  0  0  0  0  0  0  0  0  0  0
    7.7751   -3.8085   -1.2541 N   0  0  0  0  0  0  0  0  0  0  0  0
    8.6490   -2.8409   -0.9693 C   0  0  0  0  0  0  0  0  0  0  0  0
    8.5345   -1.8303   -1.8571 N   0  0  0  0  0  0  0  0  0  0  0  0
    7.5690   -2.1456   -2.7350 C   0  0  0  0  0  0  0  0  0  0  0  0
    7.0139   -1.5256   -3.8402 C   0  0  0  0  0  0  0  0  0  0  0  0
    7.4593   -0.3983   -4.1698 O   0  0  0  0  0  0  0  0  0  0  0  0
    6.0206   -2.1214   -4.5410 N   0  0  0  0  0  0  0  0  0  0  0  0
    5.5802   -3.3224   -4.1502 C   0  0  0  0  0  0  0  0  0  0  0  0
    4.5430   -3.9527   -4.8749 N   0  0  0  0  0  0  0  0  0  0  0  0
    6.1105   -3.9365   -3.0781 N   0  0  0  0  0  0  0  0  0  0  0  0
    7.1065   -3.3811   -2.3445 C   0  0  0  0  0  0  0  0  0  0  0  0
    3.1194    2.6687    3.9844 H   0  0  0  0  0  0  0  0  0  0  0  0
    0.6994    3.7950    4.9747 H   0  0  0  0  0  0  0  0  0  0  0  0
    0.7465    2.0711    4.5282 H   0  0  0  0  0  0  0  0  0  0  0  0
    1.6239    2.5948    2.3271 H   0  0  0  0  0  0  0  0  0  0  0  0
   -0.3070    3.5315    1.3411 H   0  0  0  0  0  0  0  0  0  0  0  0
   -0.2439    5.4380    3.6637 H   0  0  0  0  0  0  0  0  0  0  0  0
   -1.0502    5.6671    2.0010 H   0  0  0  0  0  0  0  0  0  0  0  0
    1.1030    5.1128    0.9417 H   0  0  0  0  0  0  0  0  0  0  0  0
    3.5285   11.2011    2.1010 H   0  0  0  0  0  0  0  0  0  0  0  0
    1.7740   11.5915    2.2515 H   0  0  0  0  0  0  0  0  0  0  0  0
    3.4174    8.9672    3.9117 H   0  0  0  0  0  0  0  0  0  0  0  0
    2.7929    6.5495    3.8241 H   0  0  0  0  0  0  0  0  0  0  0  0
   -1.7382   -0.1844    2.1472 H   0  0  0  0  0  0  0  0  0  0  0  0
   -2.9192    0.0522    0.8338 H   0  0  0  0  0  0  0  0  0  0  0  0
   -3.0565   -2.1387    1.8870 H   0  0  0  0  0  0  0  0  0  0  0  0
   -5.5091   -0.3267    2.2072 H   0  0  0  0  0  0  0  0  0  0  0  0
   -6.1810   -1.5988    3.9124 H   0  0  0  0  0  0  0  0  0  0  0  0
   -6.0224   -3.0856    2.8234 H   0  0  0  0  0  0  0  0  0  0  0  0
   -3.8395   -3.5166    3.4462 H   0  0  0  0  0  0  0  0  0  0  0  0
   -6.6935   -2.8347    5.4245 H   0  0  0  0  0  0  0  0  0  0  0  0
    0.3977   -2.6969    7.6254 H   0  0  0  0  0  0  0  0  0  0  0  0
    0.3506   -4.4590    7.5050 H   0  0  0  0  0  0  0  0  0  0  0  0
   -1.7247   -3.0399    5.4102 H   0  0  0  0  0  0  0  0  0  0  0  0
   -7.5565    0.0549   -2.0645 H   0  0  0  0  0  0  0  0  0  0  0  0
   -7.0155   -1.4047   -2.9344 H   0  0  0  0  0  0  0  0  0  0  0  0
   -5.2777   -0.1929   -4.1268 H   0  0  0  0  0  0  0  0  0  0  0  0
   -5.6127    1.6676   -2.0428 H   0  0  0  0  0  0  0  0  0  0  0  0
   -6.2452    3.6438   -3.8627 H   0  0  0  0  0  0  0  0  0  0  0  0
   -7.4606    2.8850   -2.8219 H   0  0  0  0  0  0  0  0  0  0  0  0
   -8.4145    2.0813   -4.7045 H   0  0  0  0  0  0  0  0  0  0  0  0
   -7.7631    5.3597   -7.7091 H   0  0  0  0  0  0  0  0  0  0  0  0
   -4.3197    3.2174   -9.6260 H   0  0  0  0  0  0  0  0  0  0  0  0
   -3.5058    2.4386   -8.2659 H   0  0  0  0  0  0  0  0  0  0  0  0
   -4.7473    1.5100   -9.2946 H   0  0  0  0  0  0  0  0  0  0  0  0
   -5.3842    1.3225   -6.4699 H   0  0  0  0  0  0  0  0  0  0  0  0
   -2.5858    0.6642   -4.6201 H   0  0  0  0  0  0  0  0  0  0  0  0
   -1.1201    1.5747   -4.2773 H   0  0  0  0  0  0  0  0  0  0  0  0
   -1.5595   -1.4898   -4.1235 H   0  0  0  0  0  0  0  0  0  0  0  0
    0.8458    0.1079   -3.0177 H   0  0  0  0  0  0  0  0  0  0  0  0
    2.2722   -1.4589   -3.9586 H   0  0  0  0  0  0  0  0  0  0  0  0
    0.8654   -2.6484   -4.2289 H   0  0  0  0  0  0  0  0  0  0  0  0
    0.9835   -1.7675   -6.3161 H   0  0  0  0  0  0  0  0  0  0  0  0
    1.1117    1.8918   -5.0124 H   0  0  0  0  0  0  0  0  0  0  0  0
    5.1610    3.1521   -7.4566 H   0  0  0  0  0  0  0  0  0  0  0  0
    6.6814    2.3861   -6.9222 H   0  0  0  0  0  0  0  0  0  0  0  0
    5.1984   -2.1988   -7.9316 H   0  0  0  0  0  0  0  0  0  0  0  0
    2.3741   -1.6447    1.3339 H   0  0  0  0  0  0  0  0  0  0  0  0
    1.8608   -3.2470    0.6571 H   0  0  0  0  0  0  0  0  0  0  0  0
    0.1983   -3.5745    2.3097 H   0  0  0  0  0  0  0  0  0  0  0  0
    3.1250   -3.4024    2.8383 H   0  0  0  0  0  0  0  0  0  0  0  0
    3.2341   -2.5412    4.9124 H   0  0  0  0  0  0  0  0  0  0  0  0
    1.6035   -3.1451    5.4146 H   0  0  0  0  0  0  0  0  0  0  0  0
    2.1771   -0.8135    3.4934 H   0  0  0  0  0  0  0  0  0  0  0  0
   -0.3527    0.7895    9.5005 H   0  0  0  0  0  0  0  0  0  0  0  0
   -0.3377    2.3975    8.6566 H   0  0  0  0  0  0  0  0  0  0  0  0
   -1.7441    0.4057    6.6873 H   0  0  0  0  0  0  0  0  0  0  0  0
   -0.9190   -0.8418    4.6809 H   0  0  0  0  0  0  0  0  0  0  0  0
    5.5250   -6.7369    1.9661 H   0  0  0  0  0  0  0  0  0  0  0  0
    6.0043   -5.7730    3.3840 H   0  0  0  0  0  0  0  0  0  0  0  0
    6.9262   -4.0083    1.7436 H   0  0  0  0  0  0  0  0  0  0  0  0
    7.7912   -6.9117    1.7681 H   0  0  0  0  0  0  0  0  0  0  0  0
    8.9236   -5.9142    3.3386 H   0  0  0  0  0  0  0  0  0  0  0  0
    9.0892   -6.4913   -0.1474 H   0  0  0  0  0  0  0  0  0  0  0  0
    9.4343   -4.8088    0.3826 H   0  0  0  0  0  0  0  0  0  0  0  0
    7.3639   -5.8330   -1.4338 H   0  0  0  0  0  0  0  0  0  0  0  0
    9.3455   -2.8495   -0.1615 H   0  0  0  0  0  0  0  0  0  0  0  0
    3.9473   -4.6479   -4.3957 H   0  0  0  0  0  0  0  0  0  0  0  0
    4.3385   -3.7608   -5.8739 H   0  0  0  0  0  0  0  0  0  0  0  0
    5.7129   -4.8889   -2.8229 H   0  0  0  0  0  0  0  0  0  0  0  0
  1  2  1  0
  1121  1  0
  2  3  1  0
  2122  1  0
  2123  1  0
  3  4  1  0
  3  5  1  0
  3124  1  0
  4  8  1  0
  5  7  1  0
  5  6  1  0
  5125  1  0
  6 17  1  0
  7  8  1  0
  7126  1  0
  7127  1  0
  8  9  1  0
  8128  1  0
  9 16  1  0
  9 10  1  0
 10 12  1  0
 10 11  2  0
 12 13  2  0
 13 15  1  0
 13 14  1  0
 14129  1  0
 14130  1  0
 15 16  2  0
 15131  1  0
 16132  1  0
 17 20  1  0
 17 19  2  0
 17 18  1  0
 20 21  1  0
 21 22  1  0
 21133  1  0
 21134  1  0
 22 24  1  0
 22 23  1  0
 22135  1  0
 23 27  1  0
 24 25  1  0
 24 26  1  0
 24136  1  0
 25 39  1  0
 26 27  1  0
 26137  1  0
 26138  1  0
 27 28  1  0
 27139  1  0
 28 38  1  0
 28 29  1  0
 29 30  2  0
 29140  1  0
 30 31  1  0
 31 32  1  0
 31 38  2  0
 32 33  2  0
 32 34  1  0
 34 35  2  0
 35 36  1  0
 35 37  1  0
 36141  1  0
 36142  1  0
 37 38  1  0
 37143  1  0
 39 41  2  0
 39 42  1  0
 39 40  1  0
 42 43  1  0
 43 44  1  0
 43144  1  0
 43145  1  0
 44 46  1  0
 44 45  1  0
 44146  1  0
 45 49  1  0
 46 48  1  0
 46 47  1  0
 46147  1  0
 47 59  1  0
 48 49  1  0
 48148  1  0
 48149  1  0
 49 50  1  0
 49150  1  0
 50 51  1  0
 50 58  1  0
 51 53  1  0
 51 52  2  0
 53 54  1  0
 53151  1  0
 54 55  2  0
 54 56  1  0
 56 57  1  0
 56 58  2  0
 57152  1  0
 57153  1  0
 57154  1  0
 58155  1  0
 59 61  2  0
 59 62  1  0
 59 60  1  0
 62 63  1  0
 63 64  1  0
 63156  1  0
 63157  1  0
 64 66  1  0
 64 65  1  0
 64158  1  0
 65 69  1  0
 66 68  1  0
 66 67  1  0
 66159  1  0
 67 80  1  0
 68 69  1  0
 68160  1  0
 68161  1  0
 69 70  1  0
 69162  1  0
 70 79  1  0
 70 71  1  0
 71 72  2  0
 71163  1  0
 72 73  1  0
 73 79  2  0
 73 74  1  0
 74 76  2  0
 74 75  1  0
 75164  1  0
 75165  1  0
 76 77  1  0
 77 78  2  0
 77166  1  0
 78 79  1  0
 80 83  1  0
 80 82  2  0
 80 81  1  0
 83 84  1  0
 84 85  1  0
 84167  1  0
 84168  1  0
 85 87  1  0
 85 86  1  0
 85169  1  0
 86 90  1  0
 87 88  1  0
 87 89  1  0
 87170  1  0
 88 99  1  0
 89 90  1  0
 89171  1  0
 89172  1  0
 90 91  1  0
 90173  1  0
 91 98  1  0
 91 92  1  0
 92 93  2  0
 92 94  1  0
 94 95  2  0
 95 97  1  0
 95 96  1  0
 96174  1  0
 96175  1  0
 97 98  2  0
 97176  1  0
 98177  1  0
 99100  2  0
 99101  1  0
 99102  1  0
102103  1  0
103104  1  0
103178  1  0
103179  1  0
104105  1  0
104106  1  0
104180  1  0
105109  1  0
106108  1  0
106107  1  0
106181  1  0
107182  1  0
108109  1  0
108183  1  0
108184  1  0
109110  1  0
109185  1  0
110111  1  0
110120  1  0
111112  2  0
111186  1  0
112113  1  0
113114  1  0
113120  2  0
114115  2  0
114116  1  0
116117  2  0
117118  1  0
117119  1  0
118187  1  0
118188  1  0
119120  1  0
119189  1  0
M  CHG  5  18  -1  40  -1  60  -1  81  -1 101  -1
M  END
$$$$
DNA (5'-D(*CP*GP*TP*AP*CP*G)-3')
     RDKit          3D

189203  0  0  0  0  0  0  0  0999 V2000
    5.2895   -2.0357   -0.7329 O   0  0  0  0  0  0  0  0  0  0  0  0
    5.3281   -1.5912    0.6045 C   0  0  0  0  0  0  0  0  0  0  0  0
    3.9714   -1.6849    1.2474 C   0  0  0  0  0  0  0  0  0  0  0  0
    4.0409   -1.2484    2.5463 O   0  0  0  0  0  0  0  0  0  0  0  0
    3.4684   -3.1104    1.2679 C   0  0  0  0  0  0  0  0  0  0  0  0
    2.1519   -3.1726    0.8335 O   0  0  0  0  0  0  0  0  0  0  0  0
    3.6443   -3.5211    2.7139 C   0  0  0  0  0  0  0  0  0  0  0  0
    4.3999   -2.3636    3.3150 C   0  0  0  0  0  0  0  0  0  0  0  0
    4.0748   -2.0933    4.6862 N   0  0  0  0  0  0  0  0  0  0  0  0
    2.8328   -1.8887    5.1325 C   0  0  0  0  0  0  0  0  0  0  0  0
    1.8647   -1.9279    4.3340 O   0  0  0  0  0  0  0  0  0  0  0  0
    2.5484   -1.6328    6.4382 N   0  0  0  0  0  0  0  0  0  0  0  0
    3.5276   -1.5736    7.3559 C   0  0  0  0  0  0  0  0  0  0  0  0
    3.2664   -1.3067    8.7402 N   0  0  0  0  0  0  0  0  0  0  0  0
    4.8112   -1.7759    6.9479 C   0  0  0  0  0  0  0  0  0  0  0  0
    5.0637   -2.0315    5.6256 C   0  0  0  0  0  0  0  0  0  0  0  0
    2.0075   -4.0514   -0.6025 P   0  0  0  0  0  0  0  0  0  0  0  0
    3.3694   -4.9871   -0.8743 O   0  0  0  0  0  0  0  0  0  0  0  0
    0.7424   -4.8924   -0.5064 O   0  0  0  0  0  0  0  0  0  0  0  0
    1.7648   -2.9490   -1.8455 O   0  0  0  0  0  0  0  0  0  0  0  0
    2.2248   -3.3887   -3.0769 C   0  0  0  0  0  0  0  0  0  0  0  0
    1.8980   -2.4323   -4.2074 C   0  0  0  0  0  0  0  0  0  0  0  0
    2.3774   -2.9202   -5.3914 O   0  0  0  0  0  0  0  0  0  0  0  0
    0.3903   -2.2820   -4.3606 C   0  0  0  0  0  0  0  0  0  0  0  0
    0.1506   -1.0030   -4.8307 O   0  0  0  0  0  0  0  0  0  0  0  0
    0.1493   -3.2852   -5.4809 C   0  0  0  0  0  0  0  0  0  0  0  0
    1.3717   -3.0650   -6.3074 C   0  0  0  0  0  0  0  0  0  0  0  0
    1.6517   -4.1863   -7.1884 N   0  0  0  0  0  0  0  0  0  0  0  0
    0.6830   -5.0322   -7.6187 C   0  0  0  0  0  0  0  0  0  0  0  0
    1.2542   -5.9654   -8.4182 N   0  0  0  0  0  0  0  0  0  0  0  0
    2.5872   -5.7172   -8.4993 C   0  0  0  0  0  0  0  0  0  0  0  0
    3.5976   -6.3665   -9.1764 C   0  0  0  0  0  0  0  0  0  0  0  0
    3.4042   -7.3893   -9.8899 O   0  0  0  0  0  0  0  0  0  0  0  0
    4.8448   -5.8336   -9.0314 N   0  0  0  0  0  0  0  0  0  0  0  0
    5.0690   -4.7496   -8.2787 C   0  0  0  0  0  0  0  0  0  0  0  0
    6.4259   -4.2702   -8.1931 N   0  0  0  0  0  0  0  0  0  0  0  0
    4.0656   -4.1124   -7.6118 N   0  0  0  0  0  0  0  0  0  0  0  0
    2.8138   -4.5931   -7.7177 C   0  0  0  0  0  0  0  0  0  0  0  0
   -0.8724   -0.0966   -3.8334 P   0  0  0  0  0  0  0  0  0  0  0  0
   -1.3008   -0.9553   -2.4625 O   0  0  0  0  0  0  0  0  0  0  0  0
   -2.1452    0.2411   -4.6043 O   0  0  0  0  0  0  0  0  0  0  0  0
   -0.0910    1.3517   -3.5110 O   0  0  0  0  0  0  0  0  0  0  0  0
   -0.9276    2.4724   -3.6119 C   0  0  0  0  0  0  0  0  0  0  0  0
   -0.0193    3.6881   -3.6424 C   0  0  0  0  0  0  0  0  0  0  0  0
    0.8314    3.5720   -4.7464 O   0  0  0  0  0  0  0  0  0  0  0  0
   -0.6918    4.9899   -3.8061 C   0  0  0  0  0  0  0  0  0  0  0  0
   -1.8446    4.9537   -4.5790 O   0  0  0  0  0  0  0  0  0  0  0  0
    0.3818    5.8336   -4.5424 C   0  0  0  0  0  0  0  0  0  0  0  0
    1.4288    4.8038   -4.8107 C   0  0  0  0  0  0  0  0  0  0  0  0
    2.0992    5.0068   -6.0929 N   0  0  0  0  0  0  0  0  0  0  0  0
    1.4256    4.9776   -7.2585 C   0  0  0  0  0  0  0  0  0  0  0  0
    0.1640    4.7698   -7.2674 O   0  0  0  0  0  0  0  0  0  0  0  0
    2.0575    5.1656   -8.4524 N   0  0  0  0  0  0  0  0  0  0  0  0
    3.3806    5.3897   -8.5330 C   0  0  0  0  0  0  0  0  0  0  0  0
    3.9663    5.5635   -9.6258 O   0  0  0  0  0  0  0  0  0  0  0  0
    4.0748    5.4200   -7.3339 C   0  0  0  0  0  0  0  0  0  0  0  0
    5.5445    5.6629   -7.3310 C   0  0  0  0  0  0  0  0  0  0  0  0
    3.4223    5.2300   -6.1607 C   0  0  0  0  0  0  0  0  0  0  0  0
   -2.9310    6.0992   -4.0454 P   0  0  0  0  0  0  0  0  0  0  0  0
   -2.1135    7.4981   -3.4831 O   0  0  0  0  0  0  0  0  0  0  0  0
   -3.7456    6.5881   -5.2543 O   0  0  0  0  0  0  0  0  0  0  0  0
   -4.0295    5.5747   -2.9050 O   0  0  0  0  0  0  0  0  0  0  0  0
   -3.7168    4.3947   -2.2646 C   0  0  0  0  0  0  0  0  0  0  0  0
   -4.7998    4.1963   -1.1907 C   0  0  0  0  0  0  0  0  0  0  0  0
   -4.7730    5.2458   -0.3182 O   0  0  0  0  0  0  0  0  0  0  0  0
   -4.5144    2.9201   -0.4647 C   0  0  0  0  0  0  0  0  0  0  0  0
   -5.7540    2.3836   -0.0936 O   0  0  0  0  0  0  0  0  0  0  0  0
   -3.7197    3.4181    0.7292 C   0  0  0  0  0  0  0  0  0  0  0  0
   -4.2351    4.8098    0.8650 C   0  0  0  0  0  0  0  0  0  0  0  0
   -3.1841    5.7428    1.2565 N   0  0  0  0  0  0  0  0  0  0  0  0
   -2.8876    6.9525    0.7591 C   0  0  0  0  0  0  0  0  0  0  0  0
   -1.8193    7.4247    1.4587 N   0  0  0  0  0  0  0  0  0  0  0  0
   -1.4755    6.5106    2.3677 C   0  0  0  0  0  0  0  0  0  0  0  0
   -0.4804    6.4587    3.3350 C   0  0  0  0  0  0  0  0  0  0  0  0
    0.4465    7.5179    3.5225 N   0  0  0  0  0  0  0  0  0  0  0  0
   -0.3603    5.3725    4.1451 N   0  0  0  0  0  0  0  0  0  0  0  0
   -1.2257    4.3572    3.9844 C   0  0  0  0  0  0  0  0  0  0  0  0
   -2.2065    4.3416    3.0734 N   0  0  0  0  0  0  0  0  0  0  0  0
   -2.3221    5.4291    2.2668 C   0  0  0  0  0  0  0  0  0  0  0  0
   -5.8054    0.8049   -0.7544 P   0  0  0  0  0  0  0  0  0  0  0  0
   -5.7981    0.8531   -2.4322 O   0  0  0  0  0  0  0  0  0  0  0  0
   -6.9773    0.0391   -0.2032 O   0  0  0  0  0  0  0  0  0  0  0  0
   -4.4054    0.0328   -0.1445 O   0  0  0  0  0  0  0  0  0  0  0  0
   -4.6437   -0.1504    1.2117 C   0  0  0  0  0  0  0  0  0  0  0  0
   -3.3573   -0.4367    1.9674 C   0  0  0  0  0  0  0  0  0  0  0  0
   -2.4466    0.5775    1.8358 O   0  0  0  0  0  0  0  0  0  0  0  0
   -2.7125   -1.6420    1.3525 C   0  0  0  0  0  0  0  0  0  0  0  0
   -2.9218   -2.7905    2.1225 O   0  0  0  0  0  0  0  0  0  0  0  0
   -1.2396   -1.2871    1.3140 C   0  0  0  0  0  0  0  0  0  0  0  0
   -1.2136    0.0030    2.1322 C   0  0  0  0  0  0  0  0  0  0  0  0
   -0.0874    0.8199    1.7540 N   0  0  0  0  0  0  0  0  0  0  0  0
    0.8307    1.2388    2.6720 C   0  0  0  0  0  0  0  0  0  0  0  0
    0.7095    0.9173    3.8767 O   0  0  0  0  0  0  0  0  0  0  0  0
    1.8860    2.0045    2.3125 N   0  0  0  0  0  0  0  0  0  0  0  0
    2.0738    2.3842    1.0358 C   0  0  0  0  0  0  0  0  0  0  0  0
    3.1975    3.1908    0.6906 N   0  0  0  0  0  0  0  0  0  0  0  0
    1.1486    1.9638    0.1021 C   0  0  0  0  0  0  0  0  0  0  0  0
    0.0685    1.1815    0.4655 C   0  0  0  0  0  0  0  0  0  0  0  0
   -3.6364   -4.0129    1.2257 P   0  0  0  0  0  0  0  0  0  0  0  0
   -5.1287   -3.7961    1.1072 O   0  0  0  0  0  0  0  0  0  0  0  0
   -2.9359   -4.2150   -0.2870 O   0  0  0  0  0  0  0  0  0  0  0  0
   -3.4385   -5.4612    2.1014 O   0  0  0  0  0  0  0  0  0  0  0  0
   -3.5607   -5.1117    3.4449 C   0  0  0  0  0  0  0  0  0  0  0  0
   -3.1726   -6.1735    4.4130 C   0  0  0  0  0  0  0  0  0  0  0  0
   -3.3604   -5.6389    5.6982 O   0  0  0  0  0  0  0  0  0  0  0  0
   -1.7613   -6.6500    4.3210 C   0  0  0  0  0  0  0  0  0  0  0  0
   -0.9970   -5.9258    3.4093 O   0  0  0  0  0  0  0  0  0  0  0  0
   -1.2143   -6.2609    5.7053 C   0  0  0  0  0  0  0  0  0  0  0  0
   -2.1234   -5.0542    5.9699 C   0  0  0  0  0  0  0  0  0  0  0  0
   -1.9935   -4.5218    7.2874 N   0  0  0  0  0  0  0  0  0  0  0  0
   -1.6814   -5.0973    8.4525 C   0  0  0  0  0  0  0  0  0  0  0  0
   -1.6866   -4.1583    9.4328 N   0  0  0  0  0  0  0  0  0  0  0  0
   -2.0024   -2.9741    8.8994 C   0  0  0  0  0  0  0  0  0  0  0  0
   -2.1617   -1.6819    9.3758 C   0  0  0  0  0  0  0  0  0  0  0  0
   -1.9873   -1.4605   10.6092 O   0  0  0  0  0  0  0  0  0  0  0  0
   -2.5005   -0.6564    8.5404 N   0  0  0  0  0  0  0  0  0  0  0  0
   -2.6840   -0.8997    7.2294 C   0  0  0  0  0  0  0  0  0  0  0  0
   -3.0378    0.1523    6.3330 N   0  0  0  0  0  0  0  0  0  0  0  0
   -2.5247   -2.1594    6.7874 N   0  0  0  0  0  0  0  0  0  0  0  0
   -2.1945   -3.1962    7.5628 C   0  0  0  0  0  0  0  0  0  0  0  0
    4.9050   -1.2944   -1.2676 H   0  0  0  0  0  0  0  0  0  0  0  0
    5.6525   -0.5353    0.5530 H   0  0  0  0  0  0  0  0  0  0  0  0
    6.0940   -2.1893    1.1443 H   0  0  0  0  0  0  0  0  0  0  0  0
    3.2873   -1.0158    0.6896 H   0  0  0  0  0  0  0  0  0  0  0  0
    4.1299   -3.6826    0.5726 H   0  0  0  0  0  0  0  0  0  0  0  0
    4.3030   -4.4139    2.7109 H   0  0  0  0  0  0  0  0  0  0  0  0
    2.7204   -3.7901    3.2211 H   0  0  0  0  0  0  0  0  0  0  0  0
    5.4923   -2.5724    3.2315 H   0  0  0  0  0  0  0  0  0  0  0  0
    3.1622   -0.3242    9.0293 H   0  0  0  0  0  0  0  0  0  0  0  0
    3.1880   -2.1091    9.4260 H   0  0  0  0  0  0  0  0  0  0  0  0
    5.6271   -1.7370    7.6487 H   0  0  0  0  0  0  0  0  0  0  0  0
    6.1138   -2.1904    5.3355 H   0  0  0  0  0  0  0  0  0  0  0  0
    1.8709   -4.4212   -3.2997 H   0  0  0  0  0  0  0  0  0  0  0  0
    3.3299   -3.4665   -2.9944 H   0  0  0  0  0  0  0  0  0  0  0  0
    2.4022   -1.4736   -3.9815 H   0  0  0  0  0  0  0  0  0  0  0  0
   -0.1403   -2.5262   -3.4291 H   0  0  0  0  0  0  0  0  0  0  0  0
   -0.7563   -3.0747   -6.0509 H   0  0  0  0  0  0  0  0  0  0  0  0
    0.1781   -4.2847   -5.0105 H   0  0  0  0  0  0  0  0  0  0  0  0
    1.2570   -2.1195   -6.8626 H   0  0  0  0  0  0  0  0  0  0  0  0
   -0.3830   -4.9621   -7.3563 H   0  0  0  0  0  0  0  0  0  0  0  0
    7.2115   -4.9593   -8.0274 H   0  0  0  0  0  0  0  0  0  0  0  0
    6.6451   -3.2459   -8.2935 H   0  0  0  0  0  0  0  0  0  0  0  0
    4.2501   -3.2716   -7.0310 H   0  0  0  0  0  0  0  0  0  0  0  0
   -1.4435    2.4146   -4.5872 H   0  0  0  0  0  0  0  0  0  0  0  0
   -1.5878    2.5468   -2.7357 H   0  0  0  0  0  0  0  0  0  0  0  0
    0.6001    3.6924   -2.7139 H   0  0  0  0  0  0  0  0  0  0  0  0
   -0.9232    5.5075   -2.8326 H   0  0  0  0  0  0  0  0  0  0  0  0
    0.7094    6.6091   -3.8232 H   0  0  0  0  0  0  0  0  0  0  0  0
   -0.0422    6.3246   -5.4371 H   0  0  0  0  0  0  0  0  0  0  0  0
    2.1923    4.8637   -4.0123 H   0  0  0  0  0  0  0  0  0  0  0  0
    1.4677    5.1286   -9.3197 H   0  0  0  0  0  0  0  0  0  0  0  0
    5.7745    6.4850   -8.0367 H   0  0  0  0  0  0  0  0  0  0  0  0
    6.0122    4.7189   -7.6802 H   0  0  0  0  0  0  0  0  0  0  0  0
    5.8944    5.8595   -6.3038 H   0  0  0  0  0  0  0  0  0  0  0  0
    3.9981    5.2603   -5.2297 H   0  0  0  0  0  0  0  0  0  0  0  0
   -2.7407    4.4071   -1.7295 H   0  0  0  0  0  0  0  0  0  0  0  0
   -3.8350    3.5524   -2.9589 H   0  0  0  0  0  0  0  0  0  0  0  0
   -5.7800    4.1233   -1.7152 H   0  0  0  0  0  0  0  0  0  0  0  0
   -3.8958    2.2529   -1.0628 H   0  0  0  0  0  0  0  0  0  0  0  0
   -4.0198    2.8103    1.6056 H   0  0  0  0  0  0  0  0  0  0  0  0
   -2.6460    3.3564    0.4910 H   0  0  0  0  0  0  0  0  0  0  0  0
   -4.9917    4.8384    1.6935 H   0  0  0  0  0  0  0  0  0  0  0  0
   -3.4165    7.4392   -0.0495 H   0  0  0  0  0  0  0  0  0  0  0  0
    1.0494    7.8907    2.7319 H   0  0  0  0  0  0  0  0  0  0  0  0
    0.5611    7.9656    4.4583 H   0  0  0  0  0  0  0  0  0  0  0  0
   -1.1455    3.4764    4.6240 H   0  0  0  0  0  0  0  0  0  0  0  0
   -5.3294   -1.0412    1.2728 H   0  0  0  0  0  0  0  0  0  0  0  0
   -5.1462    0.7146    1.6438 H   0  0  0  0  0  0  0  0  0  0  0  0
   -3.6600   -0.6133    3.0278 H   0  0  0  0  0  0  0  0  0  0  0  0
   -3.1121   -1.8127    0.3498 H   0  0  0  0  0  0  0  0  0  0  0  0
   -0.9978   -1.0248    0.2814 H   0  0  0  0  0  0  0  0  0  0  0  0
   -0.6243   -2.0688    1.7601 H   0  0  0  0  0  0  0  0  0  0  0  0
   -1.1295   -0.2274    3.2193 H   0  0  0  0  0  0  0  0  0  0  0  0
    3.8146    2.7967   -0.0719 H   0  0  0  0  0  0  0  0  0  0  0  0
    3.3949    4.1024    1.1557 H   0  0  0  0  0  0  0  0  0  0  0  0
    1.3004    2.2673   -0.9155 H   0  0  0  0  0  0  0  0  0  0  0  0
   -0.6263    0.8844   -0.3221 H   0  0  0  0  0  0  0  0  0  0  0  0
   -4.6667   -4.9113    3.5781 H   0  0  0  0  0  0  0  0  0  0  0  0
   -3.0915   -4.1295    3.6468 H   0  0  0  0  0  0  0  0  0  0  0  0
   -3.8593   -7.0514    4.2916 H   0  0  0  0  0  0  0  0  0  0  0  0
   -1.6437   -7.7318    4.1381 H   0  0  0  0  0  0  0  0  0  0  0  0
   -1.2080   -6.0832    2.4734 H   0  0  0  0  0  0  0  0  0  0  0  0
   -1.4146   -7.0803    6.3987 H   0  0  0  0  0  0  0  0  0  0  0  0
   -0.1670   -5.9709    5.6298 H   0  0  0  0  0  0  0  0  0  0  0  0
   -1.8383   -4.2958    5.2101 H   0  0  0  0  0  0  0  0  0  0  0  0
   -1.4603   -6.1470    8.5836 H   0  0  0  0  0  0  0  0  0  0  0  0
   -3.7462   -0.0091    5.5775 H   0  0  0  0  0  0  0  0  0  0  0  0
   -2.6172    1.1073    6.3870 H   0  0  0  0  0  0  0  0  0  0  0  0
   -2.6766   -2.3064    5.7615 H   0  0  0  0  0  0  0  0  0  0  0  0
  1  2  1  0
  1121  1  0
  2  3  1  0
  2122  1  0
  2123  1  0
  3  4  1  0
  3  5  1  0
  3124  1  0
  4  8  1  0
  5  7  1  0
  5  6  1  0
  5125  1  0
  6 17  1  0
  7  8  1  0
  7126  1  0
  7127  1  0
  8  9  1  0
  8128  1  0
  9 16  1  0
  9 10  1  0
 10 12  1  0
 10 11  2  0
 12 13  2  0
 13 15  1  0
 13 14  1  0
 14129  1  0
 14130  1  0
 15 16  2  0
 15131  1  0
 16132  1  0
 17 20  1  0
 17 19  2  0
 17 18  1  0
 20 21  1  0
 21 22  1  0
 21133  1  0
 21134  1  0
 22 24  1  0
 22 23  1  0
 22135  1  0
 23 27  1  0
 24 25  1  0
 24 26  1  0
 24136  1  0
 25 39  1  0
 26 27  1  0
 26137  1  0
 26138  1  0
 27 28  1  0
 27139  1  0
 28 38  1  0
 28 29  1  0
 29 30  2  0
 29140  1  0
 30 31  1  0
 31 32  1  0
 31 38  2  0
 32 33  2  0
 32 34  1  0
 34 35  2  0
 35 36  1  0
 35 37  1  0
 36141  1  0
 36142  1  0
 37 38  1  0
 37143  1  0
 39 41  2  0
 39 42  1  0
 39 40  1  0
 42 43  1  0
 43 44  1  0
 43144  1  0
 43145  1  0
 44 46  1  0
 44 45  1  0
 44146  1  0
 45 49  1  0
 46 48  1  0
 46 47  1  0
 46147  1  0
 47 59  1  0
 48 49  1  0
 48148  1  0
 48149  1  0
 49 50  1  0
 49150  1  0
 50 51  1  0
 50 58  1  0
 51 53  1  0
 51 52  2  0
 53 54  1  0
 53151  1  0
 54 55  2  0
 54 56  1  0
 56 57  1  0
 56 58  2  0
 57152  1  0
 57153  1  0
 57154  1  0
 58155  1  0
 59 61  2  0
 59 62  1  0
 59 60  1  0
 62 63  1  0
 63 64  1  0
 63156  1  0
 63157  1  0
 64 66  1  0
 64 65  1  0
 64158  1  0
 65 69  1  0
 66 68  1  0
 66 67  1  0
 66159  1  0
 67 80  1  0
 68 69  1  0
 68160  1  0
 68161  1  0
 69 70  1  0
 69162  1  0
 70 79  1  0
 70 71  1  0
 71 72  2  0
 71163  1  0
 72 73  1  0
 73 79  2  0
 73 74  1  0
 74 76  2  0
 74 75  1  0
 75164  1  0
 75165  1  0
 76 77  1  0
 77 78  2  0
 77166  1  0
 78 79  1  0
 80 83  1  0
 80 82  2  0
 80 81  1  0
 83 84  1  0
 84 85  1  0
 84167  1  0
 84168  1  0
 85 87  1  0
 85 86  1  0
 85169  1  0
 86 90  1  0
 87 88  1  0
 87 89  1  0
 87170  1  0
 88 99  1  0
 89 90  1  0
 89171  1  0
 89172  1  0
 90 91  1  0
 90173  1  0
 91 98  1  0
 91 92  1  0
 92 93  2  0
 92 94  1  0
 94 95  2  0
 95 97  1  0
 95 96  1  0
 96174  1  0
 96175  1  0
 97 98  2  0
 97176  1  0
 98177  1  0
 99100  2  0
 99101  1  0
 99102  1  0
102103  1  0
103104  1  0
103178  1  0
103179  1  0
104105  1  0
104106  1  0
104180  1  0
105109  1  0
106108  1  0
106107  1  0
106181  1  0
107182  1  0
108109  1  0
108183  1  0
108184  1  0
109110  1  0
109185  1  0
110111  1  0
110120  1  0
111112  2  0
111186  1  0
112113  1  0
113114  1  0
113120  2  0
114115  2  0
114116  1  0
116117  2  0
117118  1  0
117119  1  0
118187  1  0
118188  1  0
119120  1  0
119189  1  0
M  CHG  5  18  -1  40  -1  60  -1  81  -1 101  -1
M  END
$$$$
DNA (5'-D(*CP*GP*TP*AP*CP*G)-3')
     RDKit          3D

189203  0  0  0  0  0  0  0  0999 V2000
    0.7663   -0.1532   -5.0875 O   0  0  0  0  0  0  0  0  0  0  0  0
    1.1062   -0.3499   -3.7606 C   0  0  0  0  0  0  0  0  0  0  0  0
    2.1573    0.6573   -3.3009 C   0  0  0  0  0  0  0  0  0  0  0  0
    3.2540    0.4300   -4.1603 O   0  0  0  0  0  0  0  0  0  0  0  0
    2.6006    0.4204   -1.9027 C   0  0  0  0  0  0  0  0  0  0  0  0
    2.3350    1.4588   -1.0539 O   0  0  0  0  0  0  0  0  0  0  0  0
    4.1147    0.1961   -2.1243 C   0  0  0  0  0  0  0  0  0  0  0  0
    3.9789   -0.5367   -3.4711 C   0  0  0  0  0  0  0  0  0  0  0  0
    5.2401   -0.8714   -4.0498 N   0  0  0  0  0  0  0  0  0  0  0  0
    5.2585   -1.3556   -5.3001 C   0  0  0  0  0  0  0  0  0  0  0  0
    4.1890   -1.5079   -5.9548 O   0  0  0  0  0  0  0  0  0  0  0  0
    6.3948   -1.7067   -5.9341 N   0  0  0  0  0  0  0  0  0  0  0  0
    7.5893   -1.5902   -5.3419 C   0  0  0  0  0  0  0  0  0  0  0  0
    8.7804   -1.9607   -6.0112 N   0  0  0  0  0  0  0  0  0  0  0  0
    7.6056   -1.0951   -4.0541 C   0  0  0  0  0  0  0  0  0  0  0  0
    6.4176   -0.7363   -3.4136 C   0  0  0  0  0  0  0  0  0  0  0  0
    1.5425    0.9779    0.3338 P   0  0  0  0  0  0  0  0  0  0  0  0
    1.4913   -0.7315    0.4325 O   0  0  0  0  0  0  0  0  0  0  0  0
    2.3960    1.4300    1.5252 O   0  0  0  0  0  0  0  0  0  0  0  0
   -0.0268    1.5154    0.4479 O   0  0  0  0  0  0  0  0  0  0  0  0
   -0.1403    2.8710    0.7084 C   0  0  0  0  0  0  0  0  0  0  0  0
   -1.5657    3.2658    1.0594 C   0  0  0  0  0  0  0  0  0  0  0  0
   -1.6758    4.6175    1.3123 O   0  0  0  0  0  0  0  0  0  0  0  0
   -2.0568    2.5340    2.2796 C   0  0  0  0  0  0  0  0  0  0  0  0
   -3.3486    2.0826    2.0526 O   0  0  0  0  0  0  0  0  0  0  0  0
   -2.0595    3.6936    3.3065 C   0  0  0  0  0  0  0  0  0  0  0  0
   -2.4634    4.7920    2.4477 C   0  0  0  0  0  0  0  0  0  0  0  0
   -2.3485    6.1422    2.9138 N   0  0  0  0  0  0  0  0  0  0  0  0
   -2.4943    7.2105    2.0821 C   0  0  0  0  0  0  0  0  0  0  0  0
   -2.3261    8.3169    2.8210 N   0  0  0  0  0  0  0  0  0  0  0  0
   -2.0803    8.0013    4.0829 C   0  0  0  0  0  0  0  0  0  0  0  0
   -1.8356    8.7532    5.2302 C   0  0  0  0  0  0  0  0  0  0  0  0
   -1.8171   10.0099    5.2018 O   0  0  0  0  0  0  0  0  0  0  0  0
   -1.6118    8.0998    6.4066 N   0  0  0  0  0  0  0  0  0  0  0  0
   -1.6281    6.7481    6.4535 C   0  0  0  0  0  0  0  0  0  0  0  0
   -1.3938    6.0326    7.6715 N   0  0  0  0  0  0  0  0  0  0  0  0
   -1.8669    6.0491    5.3304 N   0  0  0  0  0  0  0  0  0  0  0  0
   -2.0951    6.6194    4.1399 C   0  0  0  0  0  0  0  0  0  0  0  0
   -3.5725    0.4842    2.4733 P   0  0  0  0  0  0  0  0  0  0  0  0
   -2.1249   -0.3596    2.6518 O   0  0  0  0  0  0  0  0  0  0  0  0
   -4.3716    0.4340    3.7687 O   0  0  0  0  0  0  0  0  0  0  0  0
   -4.4789   -0.2871    1.2775 O   0  0  0  0  0  0  0  0  0  0  0  0
   -5.6128   -0.8976    1.8111 C   0  0  0  0  0  0  0  0  0  0  0  0
   -6.1379   -1.8773    0.8010 C   0  0  0  0  0  0  0  0  0  0  0  0
   -7.2808   -2.5540    1.2282 O   0  0  0  0  0  0  0  0  0  0  0  0
   -6.6815   -1.2085   -0.4560 C   0  0  0  0  0  0  0  0  0  0  0  0
   -7.5219   -0.2032   -0.0471 O   0  0  0  0  0  0  0  0  0  0  0  0
   -7.4464   -2.3817   -1.0573 C   0  0  0  0  0  0  0  0  0  0  0  0
   -7.6851   -3.2659    0.1203 C   0  0  0  0  0  0  0  0  0  0  0  0
   -7.0183   -4.5453    0.0605 N   0  0  0  0  0  0  0  0  0  0  0  0
   -7.0440   -5.3776   -0.9709 C   0  0  0  0  0  0  0  0  0  0  0  0
   -7.6906   -5.0555   -1.9968 O   0  0  0  0  0  0  0  0  0  0  0  0
   -6.3927   -6.5769   -0.9635 N   0  0  0  0  0  0  0  0  0  0  0  0
   -5.6795   -6.9840    0.1063 C   0  0  0  0  0  0  0  0  0  0  0  0
   -5.0665   -8.0818    0.1489 O   0  0  0  0  0  0  0  0  0  0  0  0
   -5.6325   -6.1465    1.1899 C   0  0  0  0  0  0  0  0  0  0  0  0
   -4.8856   -6.4644    2.4419 C   0  0  0  0  0  0  0  0  0  0  0  0
   -6.3010   -4.9422    1.1517 C   0  0  0  0  0  0  0  0  0  0  0  0
   -7.1516    1.3108   -0.6600 P   0  0  0  0  0  0  0  0  0  0  0  0
   -6.5506    2.2811    0.5851 O   0  0  0  0  0  0  0  0  0  0  0  0
   -8.4382    1.9694   -1.1645 O   0  0  0  0  0  0  0  0  0  0  0  0
   -6.0170    1.2635   -1.9174 O   0  0  0  0  0  0  0  0  0  0  0  0
   -5.0310    2.2191   -1.7502 C   0  0  0  0  0  0  0  0  0  0  0  0
   -4.1527    2.4425   -2.9328 C   0  0  0  0  0  0  0  0  0  0  0  0
   -3.1900    3.4052   -2.7429 O   0  0  0  0  0  0  0  0  0  0  0  0
   -3.4936    1.2292   -3.4895 C   0  0  0  0  0  0  0  0  0  0  0  0
   -2.9266    0.4906   -2.4631 O   0  0  0  0  0  0  0  0  0  0  0  0
   -2.2904    1.9024   -4.1935 C   0  0  0  0  0  0  0  0  0  0  0  0
   -1.9707    2.9679   -3.1712 C   0  0  0  0  0  0  0  0  0  0  0  0
   -1.1783    4.0377   -3.7452 N   0  0  0  0  0  0  0  0  0  0  0  0
   -0.6785    4.1222   -4.9957 C   0  0  0  0  0  0  0  0  0  0  0  0
   -0.0088    5.2813   -5.1080 N   0  0  0  0  0  0  0  0  0  0  0  0
   -0.0796    5.9315   -3.9416 C   0  0  0  0  0  0  0  0  0  0  0  0
    0.4073    7.1376   -3.4812 C   0  0  0  0  0  0  0  0  0  0  0  0
    1.1765    7.9638   -4.3685 N   0  0  0  0  0  0  0  0  0  0  0  0
    0.1483    7.5072   -2.2145 N   0  0  0  0  0  0  0  0  0  0  0  0
   -0.5730    6.7457   -1.3648 C   0  0  0  0  0  0  0  0  0  0  0  0
   -1.0505    5.5645   -1.8148 N   0  0  0  0  0  0  0  0  0  0  0  0
   -0.8249    5.1422   -3.0681 C   0  0  0  0  0  0  0  0  0  0  0  0
   -3.1455   -1.1616   -2.6670 P   0  0  0  0  0  0  0  0  0  0  0  0
   -4.5964   -1.4847   -3.4837 O   0  0  0  0  0  0  0  0  0  0  0  0
   -2.0390   -1.6535   -3.5768 O   0  0  0  0  0  0  0  0  0  0  0  0
   -3.0190   -1.9995   -1.2226 O   0  0  0  0  0  0  0  0  0  0  0  0
   -1.8136   -2.6933   -1.1213 C   0  0  0  0  0  0  0  0  0  0  0  0
   -1.7830   -3.6968   -0.0205 C   0  0  0  0  0  0  0  0  0  0  0  0
   -1.9911   -3.1158    1.2537 O   0  0  0  0  0  0  0  0  0  0  0  0
   -0.4132   -4.2601    0.1607 C   0  0  0  0  0  0  0  0  0  0  0  0
   -0.0374   -5.2388   -0.7247 O   0  0  0  0  0  0  0  0  0  0  0  0
   -0.5474   -4.9426    1.5279 C   0  0  0  0  0  0  0  0  0  0  0  0
   -1.6322   -4.0925    2.1579 C   0  0  0  0  0  0  0  0  0  0  0  0
   -1.0556   -3.5417    3.3684 N   0  0  0  0  0  0  0  0  0  0  0  0
   -1.5669   -3.8621    4.5694 C   0  0  0  0  0  0  0  0  0  0  0  0
   -2.5685   -4.6469    4.6673 O   0  0  0  0  0  0  0  0  0  0  0  0
   -1.0830   -3.3980    5.7341 N   0  0  0  0  0  0  0  0  0  0  0  0
   -0.0218   -2.5606    5.7193 C   0  0  0  0  0  0  0  0  0  0  0  0
    0.5438   -2.0314    6.9192 N   0  0  0  0  0  0  0  0  0  0  0  0
    0.5387   -2.2018    4.5076 C   0  0  0  0  0  0  0  0  0  0  0  0
   -0.0002   -2.7092    3.3404 C   0  0  0  0  0  0  0  0  0  0  0  0
    1.5318   -4.8133   -1.2623 P   0  0  0  0  0  0  0  0  0  0  0  0
    2.3650   -6.0519   -1.5008 O   0  0  0  0  0  0  0  0  0  0  0  0
    1.3238   -3.9912   -2.7130 O   0  0  0  0  0  0  0  0  0  0  0  0
    2.2394   -3.7535   -0.1523 O   0  0  0  0  0  0  0  0  0  0  0  0
    3.6100   -3.8006   -0.1452 C   0  0  0  0  0  0  0  0  0  0  0  0
    4.2426   -2.8402    0.8129 C   0  0  0  0  0  0  0  0  0  0  0  0
    3.8496   -3.0775    2.1501 O   0  0  0  0  0  0  0  0  0  0  0  0
    5.7323   -3.0617    0.9344 C   0  0  0  0  0  0  0  0  0  0  0  0
    6.4413   -2.4431   -0.0776 O   0  0  0  0  0  0  0  0  0  0  0  0
    6.0407   -2.3273    2.2278 C   0  0  0  0  0  0  0  0  0  0  0  0
    4.6743   -2.2112    2.8705 C   0  0  0  0  0  0  0  0  0  0  0  0
    4.7600   -2.5513    4.2695 N   0  0  0  0  0  0  0  0  0  0  0  0
    5.1725   -3.6879    4.8269 C   0  0  0  0  0  0  0  0  0  0  0  0
    5.0988   -3.6084    6.1591 N   0  0  0  0  0  0  0  0  0  0  0  0
    4.6294   -2.3955    6.4736 C   0  0  0  0  0  0  0  0  0  0  0  0
    4.3441   -1.7475    7.6692 C   0  0  0  0  0  0  0  0  0  0  0  0
    4.5516   -2.3859    8.7195 O   0  0  0  0  0  0  0  0  0  0  0  0
    3.8735   -0.5042    7.6358 N   0  0  0  0  0  0  0  0  0  0  0  0
    3.6542    0.1735    6.4885 C   0  0  0  0  0  0  0  0  0  0  0  0
    3.1495    1.5026    6.4896 N   0  0  0  0  0  0  0  0  0  0  0  0
    3.9320   -0.4578    5.3181 N   0  0  0  0  0  0  0  0  0  0  0  0
    4.4162   -1.7322    5.3025 C   0  0  0  0  0  0  0  0  0  0  0  0
    1.3505   -0.7394   -5.6250 H   0  0  0  0  0  0  0  0  0  0  0  0
    0.1896   -0.0979   -3.1574 H   0  0  0  0  0  0  0  0  0  0  0  0
    1.3522   -1.3757   -3.4964 H   0  0  0  0  0  0  0  0  0  0  0  0
    1.8178    1.6864   -3.4390 H   0  0  0  0  0  0  0  0  0  0  0  0
    2.1605   -0.5501   -1.5393 H   0  0  0  0  0  0  0  0  0  0  0  0
    4.5740    1.1771   -2.3175 H   0  0  0  0  0  0  0  0  0  0  0  0
    4.5685   -0.4148   -1.3492 H   0  0  0  0  0  0  0  0  0  0  0  0
    3.3562   -1.4323   -3.2388 H   0  0  0  0  0  0  0  0  0  0  0  0
    9.5497   -2.4396   -5.4711 H   0  0  0  0  0  0  0  0  0  0  0  0
    8.9657   -1.7958   -7.0224 H   0  0  0  0  0  0  0  0  0  0  0  0
    8.5488   -0.9822   -3.5300 H   0  0  0  0  0  0  0  0  0  0  0  0
    6.4007   -0.3449   -2.4039 H   0  0  0  0  0  0  0  0  0  0  0  0
    0.5943    3.2221    1.4482 H   0  0  0  0  0  0  0  0  0  0  0  0
    0.0887    3.3963   -0.2655 H   0  0  0  0  0  0  0  0  0  0  0  0
   -2.1747    3.0448    0.1515 H   0  0  0  0  0  0  0  0  0  0  0  0
   -1.3649    1.7530    2.5854 H   0  0  0  0  0  0  0  0  0  0  0  0
   -2.8015    3.3346    4.0482 H   0  0  0  0  0  0  0  0  0  0  0  0
   -1.0101    3.6844    3.6471 H   0  0  0  0  0  0  0  0  0  0  0  0
   -3.5118    4.5681    2.0882 H   0  0  0  0  0  0  0  0  0  0  0  0
   -2.7056    7.2196    1.0218 H   0  0  0  0  0  0  0  0  0  0  0  0
   -0.6351    6.3164    8.3465 H   0  0  0  0  0  0  0  0  0  0  0  0
   -1.9759    5.1936    7.9338 H   0  0  0  0  0  0  0  0  0  0  0  0
   -1.8745    5.0320    5.3929 H   0  0  0  0  0  0  0  0  0  0  0  0
   -5.3229   -1.4767    2.7094 H   0  0  0  0  0  0  0  0  0  0  0  0
   -6.3696   -0.1506    2.1148 H   0  0  0  0  0  0  0  0  0  0  0  0
   -5.3533   -2.5627    0.4832 H   0  0  0  0  0  0  0  0  0  0  0  0
   -5.8556   -0.9243   -1.1011 H   0  0  0  0  0  0  0  0  0  0  0  0
   -6.8188   -2.9057   -1.8147 H   0  0  0  0  0  0  0  0  0  0  0  0
   -8.3922   -2.0339   -1.5219 H   0  0  0  0  0  0  0  0  0  0  0  0
   -8.7885   -3.5185    0.2011 H   0  0  0  0  0  0  0  0  0  0  0  0
   -6.4156   -7.2276   -1.7766 H   0  0  0  0  0  0  0  0  0  0  0  0
   -3.9601   -7.0071    2.2476 H   0  0  0  0  0  0  0  0  0  0  0  0
   -4.6718   -5.5581    3.0113 H   0  0  0  0  0  0  0  0  0  0  0  0
   -5.5192   -7.1135    3.0856 H   0  0  0  0  0  0  0  0  0  0  0  0
   -6.2647   -4.2764    2.0100 H   0  0  0  0  0  0  0  0  0  0  0  0
   -4.3897    1.8651   -0.9004 H   0  0  0  0  0  0  0  0  0  0  0  0
   -5.5166    3.1453   -1.4083 H   0  0  0  0  0  0  0  0  0  0  0  0
   -4.8237    2.8358   -3.7495 H   0  0  0  0  0  0  0  0  0  0  0  0
   -4.0715    0.6446   -4.2149 H   0  0  0  0  0  0  0  0  0  0  0  0
   -1.4910    1.1690   -4.3126 H   0  0  0  0  0  0  0  0  0  0  0  0
   -2.6457    2.3660   -5.1357 H   0  0  0  0  0  0  0  0  0  0  0  0
   -1.4488    2.4683   -2.3299 H   0  0  0  0  0  0  0  0  0  0  0  0
   -0.7902    3.3813   -5.7972 H   0  0  0  0  0  0  0  0  0  0  0  0
    0.6740    8.5655   -5.0432 H   0  0  0  0  0  0  0  0  0  0  0  0
    2.2185    7.9720   -4.3469 H   0  0  0  0  0  0  0  0  0  0  0  0
   -0.7291    7.1223   -0.3735 H   0  0  0  0  0  0  0  0  0  0  0  0
   -1.6687   -3.2202   -2.0696 H   0  0  0  0  0  0  0  0  0  0  0  0
   -0.9727   -1.9721   -1.0158 H   0  0  0  0  0  0  0  0  0  0  0  0
   -2.5242   -4.5061   -0.1841 H   0  0  0  0  0  0  0  0  0  0  0  0
    0.3266   -3.4308    0.2516 H   0  0  0  0  0  0  0  0  0  0  0  0
    0.4089   -4.8931    2.0531 H   0  0  0  0  0  0  0  0  0  0  0  0
   -0.9031   -5.9939    1.3749 H   0  0  0  0  0  0  0  0  0  0  0  0
   -2.5221   -4.6894    2.3945 H   0  0  0  0  0  0  0  0  0  0  0  0
    1.5029   -2.3700    7.1697 H   0  0  0  0  0  0  0  0  0  0  0  0
    0.0417   -1.3449    7.5236 H   0  0  0  0  0  0  0  0  0  0  0  0
    1.3983   -1.5221    4.5105 H   0  0  0  0  0  0  0  0  0  0  0  0
    0.4567   -2.4110    2.4173 H   0  0  0  0  0  0  0  0  0  0  0  0
    4.0184   -3.6220   -1.1511 H   0  0  0  0  0  0  0  0  0  0  0  0
    3.8905   -4.8352    0.2022 H   0  0  0  0  0  0  0  0  0  0  0  0
    4.0549   -1.7803    0.5484 H   0  0  0  0  0  0  0  0  0  0  0  0
    5.9899   -4.1183    1.0388 H   0  0  0  0  0  0  0  0  0  0  0  0
    6.6828   -1.5156    0.1554 H   0  0  0  0  0  0  0  0  0  0  0  0
    6.4598   -1.3252    2.0062 H   0  0  0  0  0  0  0  0  0  0  0  0
    6.7760   -2.8641    2.8517 H   0  0  0  0  0  0  0  0  0  0  0  0
    4.2721   -1.1961    2.7545 H   0  0  0  0  0  0  0  0  0  0  0  0
    5.5155   -4.5426    4.2573 H   0  0  0  0  0  0  0  0  0  0  0  0
    2.2679    1.6948    7.0220 H   0  0  0  0  0  0  0  0  0  0  0  0
    3.6248    2.2957    5.9793 H   0  0  0  0  0  0  0  0  0  0  0  0
    3.7617    0.0649    4.4309 H   0  0  0  0  0  0  0  0  0  0  0  0
  1  2  1  0
  1121  1  0
  2  3  1  0
  2122  1  0
  2123  1  0
  3  4  1  0
  3  5  1  0
  3124  1  0
  4  8  1  0
  5  7  1  0
  5  6  1  0
  5125  1  0
  6 17  1  0
  7  8  1  0
  7126  1  0
  7127  1  0
  8  9  1  0
  8128  1  0
  9 16  1  0
  9 10  1  0
 10 12  1  0
 10 11  2  0
 12 13  2  0
 13 15  1  0
 13 14  1  0
 14129  1  0
 14130  1  0
 15 16  2  0
 15131  1  0
 16132  1  0
 17 20  1  0
 17 19  2  0
 17 18  1  0
 20 21  1  0
 21 22  1  0
 21133  1  0
 21134  1  0
 22 24  1  0
 22 23  1  0
 22135  1  0
 23 27  1  0
 24 25  1  0
 24 26  1  0
 24136  1  0
 25 39  1  0
 26 27  1  0
 26137  1  0
 26138  1  0
 27 28  1  0
 27139  1  0
 28 38  1  0
 28 29  1  0
 29 30  2  0
 29140  1  0
 30 31  1  0
 31 32  1  0
 31 38  2  0
 32 33  2  0
 32 34  1  0
 34 35  2  0
 35 36  1  0
 35 37  1  0
 36141  1  0
 36142  1  0
 37 38  1  0
 37143  1  0
 39 41  2  0
 39 42  1  0
 39 40  1  0
 42 43  1  0
 43 44  1  0
 43144  1  0
 43145  1  0
 44 46  1  0
 44 45  1  0
 44146  1  0
 45 49  1  0
 46 48  1  0
 46 47  1  0
 46147  1  0
 47 59  1  0
 48 49  1  0
 48148  1  0
 48149  1  0
 49 50  1  0
 49150  1  0
 50 51  1  0
 50 58  1  0
 51 53  1  0
 51 52  2  0
 53 54  1  0
 53151  1  0
 54 55  2  0
 54 56  1  0
 56 57  1  0
 56 58  2  0
 57152  1  0
 57153  1  0
 57154  1  0
 58155  1  0
 59 61  2  0
 59 62  1  0
 59 60  1  0
 62 63  1  0
 63 64  1  0
 63156  1  0
 63157  1  0
 64 66  1  0
 64 65  1  0
 64158  1  0
 65 69  1  0
 66 68  1  0
 66 67  1  0
 66159  1  0
 67 80  1  0
 68 69  1  0
 68160  1  0
 68161  1  0
 69 70  1  0
 69162  1  0
 70 79  1  0
 70 71  1  0
 71 72  2  0
 71163  1  0
 72 73  1  0
 73 79  2  0
 73 74  1  0
 74 76  2  0
 74 75  1  0
 75164  1  0
 75165  1  0
 76 77  1  0
 77 78  2  0
 77166  1  0
 78 79  1  0
 80 83  1  0
 80 82  2  0
 80 81  1  0
 83 84  1  0
 84 85  1  0
 84167  1  0
 84168  1  0
 85 87  1  0
 85 86  1  0
 85169  1  0
 86 90  1  0
 87 88  1  0
 87 89  1  0
 87170  1  0
 88 99  1  0
 89 90  1  0
 89171  1  0
 89172  1  0
 90 91  1  0
 90173  1  0
 91 98  1  0
 91 92  1  0
 92 93  2  0
 92 94  1  0
 94 95  2  0
 95 97  1  0
 95 96  1  0
 96174  1  0
 96175  1  0
 97 98  2  0
 97176  1  0
 98177  1  0
 99100  2  0
 99101  1  0
 99102  1  0
102103  1  0
103104  1  0
103178  1  0
103179  1  0
104105  1  0
104106  1  0
104180  1  0
105109  1  0
106108  1  0
106107  1  0
106181  1  0
107182  1  0
108109  1  0
108183  1  0
108184  1  0
109110  1  0
109185  1  0
110111  1  0
110120  1  0
111112  2  0
111186  1  0
112113  1  0
113114  1  0
113120  2  0
114115  2  0
114116  1  0
116117  2  0
117118  1  0
117119  1  0
118187  1  0
118188  1  0
119120  1  0
119189  1  0
M  CHG  5  18  -1  40  -1  60  -1  81  -1 101  -1
M  END
$$$$
DNA (5'-D(*CP*GP*TP*AP*CP*G)-3')
     RDKit          3D

189203  0  0  0  0  0  0  0  0999 V2000
    1.7142    4.3983   -6.0825 O   0  0  0  0  0  0  0  0  0  0  0  0
    0.4532    4.1589   -5.5356 C   0  0  0  0  0  0  0  0  0  0  0  0
    0.1120    2.6981   -5.7750 C   0  0  0  0  0  0  0  0  0  0  0  0
    0.1179    2.4942   -7.1442 O   0  0  0  0  0  0  0  0  0  0  0  0
   -1.2955    2.4248   -5.3202 C   0  0  0  0  0  0  0  0  0  0  0  0
   -2.0833    3.5123   -5.6019 O   0  0  0  0  0  0  0  0  0  0  0  0
   -1.6433    1.2474   -6.2605 C   0  0  0  0  0  0  0  0  0  0  0  0
   -0.7178    1.4329   -7.4423 C   0  0  0  0  0  0  0  0  0  0  0  0
    0.0458    0.2346   -7.7366 N   0  0  0  0  0  0  0  0  0  0  0  0
    1.3549    0.2427   -8.0340 C   0  0  0  0  0  0  0  0  0  0  0  0
    1.9544    1.3575   -8.0559 O   0  0  0  0  0  0  0  0  0  0  0  0
    2.0205   -0.8950   -8.3025 N   0  0  0  0  0  0  0  0  0  0  0  0
    1.3696   -2.0877   -8.2776 C   0  0  0  0  0  0  0  0  0  0  0  0
    2.0194   -3.3196   -8.5535 N   0  0  0  0  0  0  0  0  0  0  0  0
    0.0159   -2.1416   -7.9745 C   0  0  0  0  0  0  0  0  0  0  0  0
   -0.6067   -0.9417   -7.7088 C   0  0  0  0  0  0  0  0  0  0  0  0
   -3.1601    3.9658   -4.4217 P   0  0  0  0  0  0  0  0  0  0  0  0
   -4.0085    5.3267   -5.0170 O   0  0  0  0  0  0  0  0  0  0  0  0
   -4.2079    2.8943   -4.2112 O   0  0  0  0  0  0  0  0  0  0  0  0
   -2.5072    4.3322   -2.9355 O   0  0  0  0  0  0  0  0  0  0  0  0
   -2.4621    5.7295   -2.7104 C   0  0  0  0  0  0  0  0  0  0  0  0
   -2.1385    5.9542   -1.2751 C   0  0  0  0  0  0  0  0  0  0  0  0
   -2.0574    7.3014   -0.9033 O   0  0  0  0  0  0  0  0  0  0  0  0
   -0.7560    5.3973   -0.9958 C   0  0  0  0  0  0  0  0  0  0  0  0
   -0.3742    4.4425   -1.8974 O   0  0  0  0  0  0  0  0  0  0  0  0
    0.1113    6.6222   -1.1720 C   0  0  0  0  0  0  0  0  0  0  0  0
   -0.8613    7.6981   -1.4196 C   0  0  0  0  0  0  0  0  0  0  0  0
   -0.4470    9.0181   -1.0321 N   0  0  0  0  0  0  0  0  0  0  0  0
   -0.1925   10.1110   -1.7759 C   0  0  0  0  0  0  0  0  0  0  0  0
    0.1707   11.1482   -0.9870 N   0  0  0  0  0  0  0  0  0  0  0  0
    0.1535   10.7289    0.2880 C   0  0  0  0  0  0  0  0  0  0  0  0
    0.4348   11.3676    1.4805 C   0  0  0  0  0  0  0  0  0  0  0  0
    0.7903   12.5907    1.5117 O   0  0  0  0  0  0  0  0  0  0  0  0
    0.3218   10.6519    2.6342 N   0  0  0  0  0  0  0  0  0  0  0  0
   -0.0592    9.3410    2.6021 C   0  0  0  0  0  0  0  0  0  0  0  0
   -0.1607    8.6312    3.8543 N   0  0  0  0  0  0  0  0  0  0  0  0
   -0.3259    8.7480    1.4274 N   0  0  0  0  0  0  0  0  0  0  0  0
   -0.2339    9.3996    0.2392 C   0  0  0  0  0  0  0  0  0  0  0  0
   -0.0069    3.0209   -1.0663 P   0  0  0  0  0  0  0  0  0  0  0  0
    1.0869    2.0712   -1.9543 O   0  0  0  0  0  0  0  0  0  0  0  0
    0.5439    3.3921    0.2820 O   0  0  0  0  0  0  0  0  0  0  0  0
   -1.4707    2.1736   -0.8487 O   0  0  0  0  0  0  0  0  0  0  0  0
   -1.4806    1.5308    0.3891 C   0  0  0  0  0  0  0  0  0  0  0  0
   -2.6451    0.5941    0.4617 C   0  0  0  0  0  0  0  0  0  0  0  0
   -2.5925   -0.0213    1.6963 O   0  0  0  0  0  0  0  0  0  0  0  0
   -2.4908   -0.5726   -0.4893 C   0  0  0  0  0  0  0  0  0  0  0  0
   -3.5942   -1.4053   -0.3202 O   0  0  0  0  0  0  0  0  0  0  0  0
   -1.3410   -1.2931    0.1955 C   0  0  0  0  0  0  0  0  0  0  0  0
   -1.7720   -1.1138    1.6462 C   0  0  0  0  0  0  0  0  0  0  0  0
   -2.5811   -2.2531    2.1073 N   0  0  0  0  0  0  0  0  0  0  0  0
   -3.7734   -2.0834    2.7050 C   0  0  0  0  0  0  0  0  0  0  0  0
   -4.1681   -0.8980    2.8468 O   0  0  0  0  0  0  0  0  0  0  0  0
   -4.5408   -3.0854    3.1451 N   0  0  0  0  0  0  0  0  0  0  0  0
   -4.1435   -4.3598    3.0066 C   0  0  0  0  0  0  0  0  0  0  0  0
   -4.8365   -5.3178    3.4072 O   0  0  0  0  0  0  0  0  0  0  0  0
   -2.9342   -4.5981    2.4038 C   0  0  0  0  0  0  0  0  0  0  0  0
   -2.4160   -5.9970    2.2170 C   0  0  0  0  0  0  0  0  0  0  0  0
   -2.1602   -3.5246    1.9567 C   0  0  0  0  0  0  0  0  0  0  0  0
   -4.4435   -1.7650   -1.6949 P   0  0  0  0  0  0  0  0  0  0  0  0
   -6.0520   -2.0905   -1.2133 O   0  0  0  0  0  0  0  0  0  0  0  0
   -4.5444   -0.4852   -2.5261 O   0  0  0  0  0  0  0  0  0  0  0  0
   -3.8770   -3.0439   -2.5971 O   0  0  0  0  0  0  0  0  0  0  0  0
   -3.5227   -4.1112   -1.8263 C   0  0  0  0  0  0  0  0  0  0  0  0
   -2.6936   -5.1449   -2.5414 C   0  0  0  0  0  0  0  0  0  0  0  0
   -3.4200   -5.6571   -3.5921 O   0  0  0  0  0  0  0  0  0  0  0  0
   -1.4980   -4.5733   -3.2277 C   0  0  0  0  0  0  0  0  0  0  0  0
   -0.7225   -3.7192   -2.4959 O   0  0  0  0  0  0  0  0  0  0  0  0
   -2.1206   -3.9321   -4.4513 C   0  0  0  0  0  0  0  0  0  0  0  0
   -3.2714   -4.8541   -4.6990 C   0  0  0  0  0  0  0  0  0  0  0  0
   -4.5040   -4.2242   -5.0643 N   0  0  0  0  0  0  0  0  0  0  0  0
   -5.7149   -4.7533   -4.7124 C   0  0  0  0  0  0  0  0  0  0  0  0
   -6.7039   -3.9739   -5.1790 N   0  0  0  0  0  0  0  0  0  0  0  0
   -6.1761   -2.9434   -5.8301 C   0  0  0  0  0  0  0  0  0  0  0  0
   -6.7455   -1.8758   -6.4835 C   0  0  0  0  0  0  0  0  0  0  0  0
   -8.1574   -1.7447   -6.5427 N   0  0  0  0  0  0  0  0  0  0  0  0
   -5.8966   -0.9925   -7.0476 N   0  0  0  0  0  0  0  0  0  0  0  0
   -4.5430   -1.1698   -6.9620 C   0  0  0  0  0  0  0  0  0  0  0  0
   -4.0035   -2.2188   -6.3202 N   0  0  0  0  0  0  0  0  0  0  0  0
   -4.7962   -3.1235   -5.7435 C   0  0  0  0  0  0  0  0  0  0  0  0
    0.9070   -4.1687   -2.4657 P   0  0  0  0  0  0  0  0  0  0  0  0
    1.0770   -5.6147   -3.3358 O   0  0  0  0  0  0  0  0  0  0  0  0
    1.7467   -3.1375   -3.2193 O   0  0  0  0  0  0  0  0  0  0  0  0
    1.4701   -4.3966   -0.9090 O   0  0  0  0  0  0  0  0  0  0  0  0
    2.6574   -5.0825   -0.8385 C   0  0  0  0  0  0  0  0  0  0  0  0
    3.1748   -5.2359    0.6000 C   0  0  0  0  0  0  0  0  0  0  0  0
    4.3433   -5.9332    0.5191 O   0  0  0  0  0  0  0  0  0  0  0  0
    3.5137   -3.8525    1.1649 C   0  0  0  0  0  0  0  0  0  0  0  0
    3.3003   -3.8235    2.5498 O   0  0  0  0  0  0  0  0  0  0  0  0
    4.9975   -3.8122    0.9513 C   0  0  0  0  0  0  0  0  0  0  0  0
    5.3481   -5.2667    1.1751 C   0  0  0  0  0  0  0  0  0  0  0  0
    5.3212   -5.6607    2.5640 N   0  0  0  0  0  0  0  0  0  0  0  0
    6.1057   -5.0898    3.4899 C   0  0  0  0  0  0  0  0  0  0  0  0
    6.9138   -4.1721    3.1835 O   0  0  0  0  0  0  0  0  0  0  0  0
    6.0897   -5.4488    4.7954 N   0  0  0  0  0  0  0  0  0  0  0  0
    5.2722   -6.4153    5.2432 C   0  0  0  0  0  0  0  0  0  0  0  0
    5.2732   -6.7767    6.6162 N   0  0  0  0  0  0  0  0  0  0  0  0
    4.4460   -7.0332    4.3278 C   0  0  0  0  0  0  0  0  0  0  0  0
    4.4863   -6.6442    3.0079 C   0  0  0  0  0  0  0  0  0  0  0  0
    2.0498   -2.8109    2.9782 P   0  0  0  0  0  0  0  0  0  0  0  0
    0.8488   -3.7033    3.2250 O   0  0  0  0  0  0  0  0  0  0  0  0
    1.7904   -1.7440    1.6727 O   0  0  0  0  0  0  0  0  0  0  0  0
    2.2855   -1.8659    4.3223 O   0  0  0  0  0  0  0  0  0  0  0  0
    1.9767   -2.5091    5.5174 C   0  0  0  0  0  0  0  0  0  0  0  0
    1.1515   -1.6884    6.4349 C   0  0  0  0  0  0  0  0  0  0  0  0
    1.7423   -0.4614    6.8198 O   0  0  0  0  0  0  0  0  0  0  0  0
    1.0028   -2.3370    7.7823 C   0  0  0  0  0  0  0  0  0  0  0  0
    0.0245   -3.3269    7.8124 O   0  0  0  0  0  0  0  0  0  0  0  0
    0.5839   -1.1385    8.6449 C   0  0  0  0  0  0  0  0  0  0  0  0
    0.6748   -0.0005    7.6338 C   0  0  0  0  0  0  0  0  0  0  0  0
    1.0108    1.1963    8.3226 N   0  0  0  0  0  0  0  0  0  0  0  0
    0.9728    1.4693    9.6469 C   0  0  0  0  0  0  0  0  0  0  0  0
    1.3776    2.7553    9.8400 N   0  0  0  0  0  0  0  0  0  0  0  0
    1.6754    3.3145    8.6651 C   0  0  0  0  0  0  0  0  0  0  0  0
    2.1208    4.5286    8.1938 C   0  0  0  0  0  0  0  0  0  0  0  0
    2.3396    5.4483    9.0528 O   0  0  0  0  0  0  0  0  0  0  0  0
    2.3256    4.7681    6.8939 N   0  0  0  0  0  0  0  0  0  0  0  0
    2.0975    3.8018    5.9687 C   0  0  0  0  0  0  0  0  0  0  0  0
    2.3164    4.0494    4.5779 N   0  0  0  0  0  0  0  0  0  0  0  0
    1.6651    2.6214    6.4200 N   0  0  0  0  0  0  0  0  0  0  0  0
    1.4442    2.3316    7.7116 C   0  0  0  0  0  0  0  0  0  0  0  0
    2.2332    3.5487   -5.9478 H   0  0  0  0  0  0  0  0  0  0  0  0
   -0.3381    4.7880   -5.9567 H   0  0  0  0  0  0  0  0  0  0  0  0
    0.5621    4.2805   -4.4490 H   0  0  0  0  0  0  0  0  0  0  0  0
    0.8354    2.0491   -5.2376 H   0  0  0  0  0  0  0  0  0  0  0  0
   -1.3852    2.0921   -4.2698 H   0  0  0  0  0  0  0  0  0  0  0  0
   -1.5394    0.2817   -5.7662 H   0  0  0  0  0  0  0  0  0  0  0  0
   -2.6827    1.4364   -6.6069 H   0  0  0  0  0  0  0  0  0  0  0  0
   -1.2894    1.6523   -8.3786 H   0  0  0  0  0  0  0  0  0  0  0  0
    3.0268   -3.5022   -8.3721 H   0  0  0  0  0  0  0  0  0  0  0  0
    1.4810   -4.1164   -8.9658 H   0  0  0  0  0  0  0  0  0  0  0  0
   -0.5314   -3.0626   -7.9461 H   0  0  0  0  0  0  0  0  0  0  0  0
   -1.6610   -0.9863   -7.4718 H   0  0  0  0  0  0  0  0  0  0  0  0
   -3.4431    6.1629   -3.0006 H   0  0  0  0  0  0  0  0  0  0  0  0
   -1.6962    6.0806   -3.4326 H   0  0  0  0  0  0  0  0  0  0  0  0
   -2.9211    5.4815   -0.6579 H   0  0  0  0  0  0  0  0  0  0  0  0
   -0.7644    5.0436    0.0561 H   0  0  0  0  0  0  0  0  0  0  0  0
    0.8602    6.4774   -1.9835 H   0  0  0  0  0  0  0  0  0  0  0  0
    0.7126    6.7264   -0.2488 H   0  0  0  0  0  0  0  0  0  0  0  0
   -1.0025    7.7570   -2.5400 H   0  0  0  0  0  0  0  0  0  0  0  0
   -0.2719   10.1483   -2.8734 H   0  0  0  0  0  0  0  0  0  0  0  0
   -1.0397    8.5770    4.3906 H   0  0  0  0  0  0  0  0  0  0  0  0
    0.7021    8.1445    4.2403 H   0  0  0  0  0  0  0  0  0  0  0  0
   -0.6162    7.7343    1.4735 H   0  0  0  0  0  0  0  0  0  0  0  0
   -0.5145    1.0126    0.4977 H   0  0  0  0  0  0  0  0  0  0  0  0
   -1.4987    2.2651    1.2284 H   0  0  0  0  0  0  0  0  0  0  0  0
   -3.6201    1.1073    0.3306 H   0  0  0  0  0  0  0  0  0  0  0  0
   -2.3032   -0.2748   -1.5143 H   0  0  0  0  0  0  0  0  0  0  0  0
   -0.3593   -0.8797   -0.0385 H   0  0  0  0  0  0  0  0  0  0  0  0
   -1.3459   -2.3853    0.0287 H   0  0  0  0  0  0  0  0  0  0  0  0
   -0.8381   -1.0428    2.2270 H   0  0  0  0  0  0  0  0  0  0  0  0
   -5.4609   -2.8563    3.6013 H   0  0  0  0  0  0  0  0  0  0  0  0
   -3.1024   -6.6874    2.7056 H   0  0  0  0  0  0  0  0  0  0  0  0
   -1.3962   -5.9993    2.6609 H   0  0  0  0  0  0  0  0  0  0  0  0
   -2.2840   -6.1976    1.1428 H   0  0  0  0  0  0  0  0  0  0  0  0
   -1.2381   -3.7630    1.4953 H   0  0  0  0  0  0  0  0  0  0  0  0
   -2.9639   -3.7658   -0.9430 H   0  0  0  0  0  0  0  0  0  0  0  0
   -4.4654   -4.5506   -1.4174 H   0  0  0  0  0  0  0  0  0  0  0  0
   -2.3801   -5.9636   -1.8964 H   0  0  0  0  0  0  0  0  0  0  0  0
   -0.8706   -5.3946   -3.6063 H   0  0  0  0  0  0  0  0  0  0  0  0
   -2.3815   -2.8818   -4.3419 H   0  0  0  0  0  0  0  0  0  0  0  0
   -1.3755   -3.9557   -5.3035 H   0  0  0  0  0  0  0  0  0  0  0  0
   -2.9648   -5.5295   -5.5490 H   0  0  0  0  0  0  0  0  0  0  0  0
   -5.8755   -5.6726   -4.1375 H   0  0  0  0  0  0  0  0  0  0  0  0
   -8.6805   -1.8324   -7.4594 H   0  0  0  0  0  0  0  0  0  0  0  0
   -8.7610   -1.5570   -5.7085 H   0  0  0  0  0  0  0  0  0  0  0  0
   -3.9620   -0.3995   -7.4512 H   0  0  0  0  0  0  0  0  0  0  0  0
    2.5346   -6.0652   -1.3141 H   0  0  0  0  0  0  0  0  0  0  0  0
    3.4455   -4.5515   -1.4153 H   0  0  0  0  0  0  0  0  0  0  0  0
    2.3539   -5.6988    1.1675 H   0  0  0  0  0  0  0  0  0  0  0  0
    2.9357   -3.0706    0.6370 H   0  0  0  0  0  0  0  0  0  0  0  0
    5.5138   -3.1225    1.6510 H   0  0  0  0  0  0  0  0  0  0  0  0
    5.2495   -3.5964   -0.1089 H   0  0  0  0  0  0  0  0  0  0  0  0
    6.3316   -5.5117    0.7156 H   0  0  0  0  0  0  0  0  0  0  0  0
    5.7940   -7.5957    6.9990 H   0  0  0  0  0  0  0  0  0  0  0  0
    4.7325   -6.2259    7.3470 H   0  0  0  0  0  0  0  0  0  0  0  0
    3.7858   -7.8058    4.6587 H   0  0  0  0  0  0  0  0  0  0  0  0
    3.8181   -7.1656    2.3330 H   0  0  0  0  0  0  0  0  0  0  0  0
    2.9677   -2.6612    6.0346 H   0  0  0  0  0  0  0  0  0  0  0  0
    1.5416   -3.5013    5.4155 H   0  0  0  0  0  0  0  0  0  0  0  0
    0.1722   -1.3792    6.0024 H   0  0  0  0  0  0  0  0  0  0  0  0
    1.9780   -2.7475    8.0818 H   0  0  0  0  0  0  0  0  0  0  0  0
   -0.8563   -2.9235    7.6465 H   0  0  0  0  0  0  0  0  0  0  0  0
    1.3514   -1.0277    9.4192 H   0  0  0  0  0  0  0  0  0  0  0  0
   -0.4369   -1.2475    9.0444 H   0  0  0  0  0  0  0  0  0  0  0  0
   -0.2437    0.0569    7.0162 H   0  0  0  0  0  0  0  0  0  0  0  0
    0.6621    0.7511   10.3957 H   0  0  0  0  0  0  0  0  0  0  0  0
    2.9798    4.7741    4.2261 H   0  0  0  0  0  0  0  0  0  0  0  0
    1.8030    3.4953    3.8589 H   0  0  0  0  0  0  0  0  0  0  0  0
    1.4937    1.8795    5.7024 H   0  0  0  0  0  0  0  0  0  0  0  0
  1  2  1  0
  1121  1  0
  2  3  1  0
  2122  1  0
  2123  1  0
  3  4  1  0
  3  5  1  0
  3124  1  0
  4  8  1  0
  5  7  1  0
  5  6  1  0
  5125  1  0
  6 17  1  0
  7  8  1  0
  7126  1  0
  7127  1  0
  8  9  1  0
  8128  1  0
  9 16  1  0
  9 10  1  0
 10 12  1  0
 10 11  2  0
 12 13  2  0
 13 15  1  0
 13 14  1  0
 14129  1  0
 14130  1  0
 15 16  2  0
 15131  1  0
 16132  1  0
 17 20  1  0
 17 19  2  0
 17 18  1  0
 20 21  1  0
 21 22  1  0
 21133  1  0
 21134  1  0
 22 24  1  0
 22 23  1  0
 22135  1  0
 23 27  1  0
 24 25  1  0
 24 26  1  0
 24136  1  0
 25 39  1  0
 26 27  1  0
 26137  1  0
 26138  1  0
 27 28  1  0
 27139  1  0
 28 38  1  0
 28 29  1  0
 29 30  2  0
 29140  1  0
 30 31  1  0
 31 32  1  0
 31 38  2  0
 32 33  2  0
 32 34  1  0
 34 35  2  0
 35 36  1  0
 35 37  1  0
 36141  1  0
 36142  1  0
 37 38  1  0
 37143  1  0
 39 41  2  0
 39 42  1  0
 39 40  1  0
 42 43  1  0
 43 44  1  0
 43144  1  0
 43145  1  0
 44 46  1  0
 44 45  1  0
 44146  1  0
 45 49  1  0
 46 48  1  0
 46 47  1  0
 46147  1  0
 47 59  1  0
 48 49  1  0
 48148  1  0
 48149  1  0
 49 50  1  0
 49150  1  0
 50 51  1  0
 50 58  1  0
 51 53  1  0
 51 52  2  0
 53 54  1  0
 53151  1  0
 54 55  2  0
 54 56  1  0
 56 57  1  0
 56 58  2  0
 57152  1  0
 57153  1  0
 57154  1  0
 58155  1  0
 59 61  2  0
 59 62  1  0
 59 60  1  0
 62 63  1  0
 63 64  1  0
 63156  1  0
 63157  1  0
 64 66  1  0
 64 65  1  0
 64158  1  0
 65 69  1  0
 66 68  1  0
 66 67  1  0
 66159  1  0
 67 80  1  0
 68 69  1  0
 68160  1  0
 68161  1  0
 69 70  1  0
 69162  1  0
 70 79  1  0
 70 71  1  0
 71 72  2  0
 71163  1  0
 72 73  1  0
 73 79  2  0
 73 74  1  0
 74 76  2  0
 74 75  1  0
 75164  1  0
 75165  1  0
 76 77  1  0
 77 78  2  0
 77166  1  0
 78 79  1  0
 80 83  1  0
 80 82  2  0
 80 81  1  0
 83 84  1  0
 84 85  1  0
 84167  1  0
 84168  1  0
 85 87  1  0
 85 86  1  0
 85169  1  0
 86 90  1  0
 87 88  1  0
 87 89  1  0
 87170  1  0
 88 99  1  0
 89 90  1  0
 89171  1  0
 89172  1  0
 90 91  1  0
 90173  1  0
 91 98  1  0
 91 92  1  0
 92 93  2  0
 92 94  1  0
 94 95  2  0
 95 97  1  0
 95 96  1  0
 96174  1  0
 96175  1  0
 97 98  2  0
 97176  1  0
 98177  1  0
 99100  2  0
 99101  1  0
 99102  1  0
102103  1  0
103104  1  0
103178  1  0
103179  1  0
104105  1  0
104106  1  0
104180  1  0
105109  1  0
106108  1  0
106107  1  0
106181  1  0
107182  1  0
108109  1  0
108183  1  0
108184  1  0
109110  1  0
109185  1  0
110111  1  0
110120  1  0
111112  2  0
111186  1  0
112113  1  0
113114  1  0
113120  2  0
114115  2  0
114116  1  0
116117  2  0
117118  1  0
117119  1  0
118187  1  0
118188  1  0
119120  1  0
119189  1  0
M  CHG  5  18  -1  40  -1  60  -1  81  -1 101  -1
M  END
$$$$
DNA (5'-D(*CP*GP*TP*AP*CP*G)-3')
     RDKit          3D

189203  0  0  0  0  0  0  0  0999 V2000
    3.7205    1.9039    5.9765 O   0  0  0  0  0  0  0  0  0  0  0  0
    4.8538    1.7858    5.1633 C   0  0  0  0  0  0  0  0  0  0  0  0
    5.2749    3.1987    4.8165 C   0  0  0  0  0  0  0  0  0  0  0  0
    6.3982    3.1559    4.0151 O   0  0  0  0  0  0  0  0  0  0  0  0
    4.1918    3.9256    4.0924 C   0  0  0  0  0  0  0  0  0  0  0  0
    3.0066    3.2145    3.9594 O   0  0  0  0  0  0  0  0  0  0  0  0
    4.8295    4.1689    2.7335 C   0  0  0  0  0  0  0  0  0  0  0  0
    5.9027    3.1124    2.7237 C   0  0  0  0  0  0  0  0  0  0  0  0
    6.9223    3.3679    1.7364 N   0  0  0  0  0  0  0  0  0  0  0  0
    7.9952    2.5551    1.7107 C   0  0  0  0  0  0  0  0  0  0  0  0
    8.1081    1.5883    2.5308 O   0  0  0  0  0  0  0  0  0  0  0  0
    8.9844    2.7362    0.8185 N   0  0  0  0  0  0  0  0  0  0  0  0
    8.9694    3.7233   -0.0909 C   0  0  0  0  0  0  0  0  0  0  0  0
   10.0011    3.9341   -1.0406 N   0  0  0  0  0  0  0  0  0  0  0  0
    7.8795    4.5698   -0.0835 C   0  0  0  0  0  0  0  0  0  0  0  0
    6.8773    4.3643    0.8403 C   0  0  0  0  0  0  0  0  0  0  0  0
    1.7315    4.1482    4.5201 P   0  0  0  0  0  0  0  0  0  0  0  0
    2.0571    4.5613    6.1410 O   0  0  0  0  0  0  0  0  0  0  0  0
    1.6873    5.4218    3.6781 O   0  0  0  0  0  0  0  0  0  0  0  0
    0.2648    3.3628    4.4063 O   0  0  0  0  0  0  0  0  0  0  0  0
   -0.4116    3.6445    3.2318 C   0  0  0  0  0  0  0  0  0  0  0  0
   -1.8334    3.1420    3.2066 C   0  0  0  0  0  0  0  0  0  0  0  0
   -2.4564    3.4578    2.0009 O   0  0  0  0  0  0  0  0  0  0  0  0
   -1.9878    1.6948    3.4721 C   0  0  0  0  0  0  0  0  0  0  0  0
   -2.6680    1.3744    4.6487 O   0  0  0  0  0  0  0  0  0  0  0  0
   -2.7306    1.1452    2.2621 C   0  0  0  0  0  0  0  0  0  0  0  0
   -2.6379    2.2916    1.2840 C   0  0  0  0  0  0  0  0  0  0  0  0
   -3.8824    2.4314    0.5307 N   0  0  0  0  0  0  0  0  0  0  0  0
   -4.7149    3.4877    0.4702 C   0  0  0  0  0  0  0  0  0  0  0  0
   -5.7632    3.2198   -0.3302 N   0  0  0  0  0  0  0  0  0  0  0  0
   -5.6166    1.9881   -0.7933 C   0  0  0  0  0  0  0  0  0  0  0  0
   -6.3396    1.1767   -1.6283 C   0  0  0  0  0  0  0  0  0  0  0  0
   -7.4234    1.5602   -2.1553 O   0  0  0  0  0  0  0  0  0  0  0  0
   -5.9449   -0.0737   -1.9395 N   0  0  0  0  0  0  0  0  0  0  0  0
   -4.8163   -0.5564   -1.4286 C   0  0  0  0  0  0  0  0  0  0  0  0
   -4.3276   -1.8821   -1.7216 N   0  0  0  0  0  0  0  0  0  0  0  0
   -4.0963    0.2184   -0.6110 N   0  0  0  0  0  0  0  0  0  0  0  0
   -4.4387    1.4697   -0.2649 C   0  0  0  0  0  0  0  0  0  0  0  0
   -1.9616    0.0333    5.4182 P   0  0  0  0  0  0  0  0  0  0  0  0
   -0.3449   -0.0603    4.9444 O   0  0  0  0  0  0  0  0  0  0  0  0
   -2.0318    0.1183    6.9039 O   0  0  0  0  0  0  0  0  0  0  0  0
   -2.7247   -1.3889    4.8201 O   0  0  0  0  0  0  0  0  0  0  0  0
   -3.9918   -1.3839    5.3998 C   0  0  0  0  0  0  0  0  0  0  0  0
   -5.0790   -1.8713    4.4737 C   0  0  0  0  0  0  0  0  0  0  0  0
   -6.2697   -1.8203    5.1865 O   0  0  0  0  0  0  0  0  0  0  0  0
   -4.8744   -3.2586    3.9755 C   0  0  0  0  0  0  0  0  0  0  0  0
   -3.6199   -3.7889    4.1591 O   0  0  0  0  0  0  0  0  0  0  0  0
   -5.9778   -4.0664    4.5976 C   0  0  0  0  0  0  0  0  0  0  0  0
   -6.9762   -2.9806    4.9470 C   0  0  0  0  0  0  0  0  0  0  0  0
   -7.9910   -2.8030    3.9249 N   0  0  0  0  0  0  0  0  0  0  0  0
   -8.8655   -3.7634    3.5859 C   0  0  0  0  0  0  0  0  0  0  0  0
   -8.8007   -4.8710    4.1817 O   0  0  0  0  0  0  0  0  0  0  0  0
   -9.8103   -3.6104    2.6431 N   0  0  0  0  0  0  0  0  0  0  0  0
   -9.9460   -2.4441    1.9525 C   0  0  0  0  0  0  0  0  0  0  0  0
  -10.8380   -2.3091    1.0658 O   0  0  0  0  0  0  0  0  0  0  0  0
   -9.0643   -1.4370    2.2752 C   0  0  0  0  0  0  0  0  0  0  0  0
   -9.1549   -0.1366    1.5579 C   0  0  0  0  0  0  0  0  0  0  0  0
   -8.1081   -1.6311    3.2491 C   0  0  0  0  0  0  0  0  0  0  0  0
   -2.9688   -4.1359    2.6307 P   0  0  0  0  0  0  0  0  0  0  0  0
   -3.7318   -3.1935    1.4425 O   0  0  0  0  0  0  0  0  0  0  0  0
   -3.2288   -5.5761    2.2607 O   0  0  0  0  0  0  0  0  0  0  0  0
   -1.3162   -3.8087    2.5428 O   0  0  0  0  0  0  0  0  0  0  0  0
   -0.6440   -4.9477    2.1546 C   0  0  0  0  0  0  0  0  0  0  0  0
    0.8394   -4.6636    1.8778 C   0  0  0  0  0  0  0  0  0  0  0  0
    1.3864   -5.8798    1.5067 O   0  0  0  0  0  0  0  0  0  0  0  0
    0.9944   -3.7160    0.7425 C   0  0  0  0  0  0  0  0  0  0  0  0
   -0.0373   -2.7958    0.5992 O   0  0  0  0  0  0  0  0  0  0  0  0
    0.9994   -4.6892   -0.4482 C   0  0  0  0  0  0  0  0  0  0  0  0
    1.7775   -5.8292    0.1980 C   0  0  0  0  0  0  0  0  0  0  0  0
    1.5736   -7.0574   -0.5133 N   0  0  0  0  0  0  0  0  0  0  0  0
    1.4634   -8.3236   -0.0920 C   0  0  0  0  0  0  0  0  0  0  0  0
    1.2748   -9.1592   -1.1434 N   0  0  0  0  0  0  0  0  0  0  0  0
    1.2642   -8.4206   -2.2554 C   0  0  0  0  0  0  0  0  0  0  0  0
    1.1141   -8.7232   -3.5848 C   0  0  0  0  0  0  0  0  0  0  0  0
    0.9203  -10.0513   -4.0535 N   0  0  0  0  0  0  0  0  0  0  0  0
    1.1488   -7.7399   -4.5037 N   0  0  0  0  0  0  0  0  0  0  0  0
    1.3319   -6.4490   -4.1146 C   0  0  0  0  0  0  0  0  0  0  0  0
    1.4814   -6.1331   -2.8128 N   0  0  0  0  0  0  0  0  0  0  0  0
    1.4500   -7.1123   -1.8661 C   0  0  0  0  0  0  0  0  0  0  0  0
    0.6658   -1.2634    0.4213 P   0  0  0  0  0  0  0  0  0  0  0  0
    0.4570   -0.4294    1.8726 O   0  0  0  0  0  0  0  0  0  0  0  0
    2.1633   -1.3661    0.1617 O   0  0  0  0  0  0  0  0  0  0  0  0
   -0.0072   -0.4386   -0.8920 O   0  0  0  0  0  0  0  0  0  0  0  0
    0.7787    0.6538   -1.2043 C   0  0  0  0  0  0  0  0  0  0  0  0
    0.3437    1.3112   -2.4957 C   0  0  0  0  0  0  0  0  0  0  0  0
   -0.9591    1.7283   -2.3553 O   0  0  0  0  0  0  0  0  0  0  0  0
    1.1962    2.4623   -2.9090 C   0  0  0  0  0  0  0  0  0  0  0  0
    1.9931    2.9301   -1.8986 O   0  0  0  0  0  0  0  0  0  0  0  0
    0.1296    3.5484   -3.1545 C   0  0  0  0  0  0  0  0  0  0  0  0
   -0.9271    3.0900   -2.1682 C   0  0  0  0  0  0  0  0  0  0  0  0
   -2.2068    3.7225   -2.4586 N   0  0  0  0  0  0  0  0  0  0  0  0
   -2.3743    4.9737   -2.0009 C   0  0  0  0  0  0  0  0  0  0  0  0
   -1.4724    5.5642   -1.3538 O   0  0  0  0  0  0  0  0  0  0  0  0
   -3.5149    5.6719   -2.2067 N   0  0  0  0  0  0  0  0  0  0  0  0
   -4.5206    5.0968   -2.8937 C   0  0  0  0  0  0  0  0  0  0  0  0
   -5.7332    5.8298   -3.1157 N   0  0  0  0  0  0  0  0  0  0  0  0
   -4.3677    3.8047   -3.3751 C   0  0  0  0  0  0  0  0  0  0  0  0
   -3.1858    3.1118   -3.1489 C   0  0  0  0  0  0  0  0  0  0  0  0
    3.5858    3.2064   -2.2783 P   0  0  0  0  0  0  0  0  0  0  0  0
    3.8419    4.6524   -2.6758 O   0  0  0  0  0  0  0  0  0  0  0  0
    4.4930    2.9626   -0.8472 O   0  0  0  0  0  0  0  0  0  0  0  0
    4.2401    2.1815   -3.4287 O   0  0  0  0  0  0  0  0  0  0  0  0
    4.2281    0.8662   -3.0036 C   0  0  0  0  0  0  0  0  0  0  0  0
    5.1626    0.0057   -3.7913 C   0  0  0  0  0  0  0  0  0  0  0  0
    5.1505   -1.2920   -3.3636 O   0  0  0  0  0  0  0  0  0  0  0  0
    4.9051   -0.0035   -5.2791 C   0  0  0  0  0  0  0  0  0  0  0  0
    5.5743    0.9818   -5.9652 O   0  0  0  0  0  0  0  0  0  0  0  0
    5.4952   -1.4049   -5.5916 C   0  0  0  0  0  0  0  0  0  0  0  0
    4.9542   -2.1412   -4.4619 C   0  0  0  0  0  0  0  0  0  0  0  0
    5.4891   -3.4205   -4.1177 N   0  0  0  0  0  0  0  0  0  0  0  0
    5.2544   -4.0123   -2.9143 C   0  0  0  0  0  0  0  0  0  0  0  0
    5.8842   -5.1893   -2.8947 N   0  0  0  0  0  0  0  0  0  0  0  0
    6.5273   -5.3840   -4.0578 C   0  0  0  0  0  0  0  0  0  0  0  0
    7.2982   -6.4115   -4.5146 C   0  0  0  0  0  0  0  0  0  0  0  0
    7.5144   -7.4084   -3.8102 O   0  0  0  0  0  0  0  0  0  0  0  0
    7.8122   -6.2864   -5.7697 N   0  0  0  0  0  0  0  0  0  0  0  0
    7.5687   -5.1906   -6.5291 C   0  0  0  0  0  0  0  0  0  0  0  0
    8.1364   -5.1172   -7.8335 N   0  0  0  0  0  0  0  0  0  0  0  0
    6.8032   -4.2045   -6.0348 N   0  0  0  0  0  0  0  0  0  0  0  0
    6.2599   -4.2530   -4.8079 C   0  0  0  0  0  0  0  0  0  0  0  0
    3.0171    1.3370    5.5693 H   0  0  0  0  0  0  0  0  0  0  0  0
    4.6530    1.2357    4.2231 H   0  0  0  0  0  0  0  0  0  0  0  0
    5.6616    1.2830    5.7322 H   0  0  0  0  0  0  0  0  0  0  0  0
    5.4864    3.7887    5.7570 H   0  0  0  0  0  0  0  0  0  0  0  0
    3.9912    4.9353    4.5307 H   0  0  0  0  0  0  0  0  0  0  0  0
    5.2413    5.2079    2.6772 H   0  0  0  0  0  0  0  0  0  0  0  0
    4.0930    4.0500    1.9143 H   0  0  0  0  0  0  0  0  0  0  0  0
    5.3786    2.1469    2.5376 H   0  0  0  0  0  0  0  0  0  0  0  0
   10.2991    3.1772   -1.6939 H   0  0  0  0  0  0  0  0  0  0  0  0
   10.4592    4.8620   -1.0740 H   0  0  0  0  0  0  0  0  0  0  0  0
    7.7889    5.3943   -0.7822 H   0  0  0  0  0  0  0  0  0  0  0  0
    6.0439    5.0291    0.8267 H   0  0  0  0  0  0  0  0  0  0  0  0
    0.1395    3.2316    2.3534 H   0  0  0  0  0  0  0  0  0  0  0  0
   -0.4168    4.7483    3.0963 H   0  0  0  0  0  0  0  0  0  0  0  0
   -2.3914    3.6946    4.0052 H   0  0  0  0  0  0  0  0  0  0  0  0
   -1.0069    1.1926    3.5046 H   0  0  0  0  0  0  0  0  0  0  0  0
   -2.2387    0.2384    1.9020 H   0  0  0  0  0  0  0  0  0  0  0  0
   -3.8108    1.0050    2.4706 H   0  0  0  0  0  0  0  0  0  0  0  0
   -1.8061    2.0936    0.5702 H   0  0  0  0  0  0  0  0  0  0  0  0
   -4.5134    4.4036    1.0138 H   0  0  0  0  0  0  0  0  0  0  0  0
   -3.4113   -2.0164   -2.2439 H   0  0  0  0  0  0  0  0  0  0  0  0
   -4.8452   -2.7412   -1.4393 H   0  0  0  0  0  0  0  0  0  0  0  0
   -3.2243   -0.1671   -0.2250 H   0  0  0  0  0  0  0  0  0  0  0  0
   -4.2886   -0.3646    5.7263 H   0  0  0  0  0  0  0  0  0  0  0  0
   -3.9736   -2.0101    6.3334 H   0  0  0  0  0  0  0  0  0  0  0  0
   -5.0996   -1.1282    3.6193 H   0  0  0  0  0  0  0  0  0  0  0  0
   -5.0561   -3.2632    2.8630 H   0  0  0  0  0  0  0  0  0  0  0  0
   -6.4823   -4.7164    3.8221 H   0  0  0  0  0  0  0  0  0  0  0  0
   -5.6353   -4.6528    5.4539 H   0  0  0  0  0  0  0  0  0  0  0  0
   -7.4828   -3.2748    5.8819 H   0  0  0  0  0  0  0  0  0  0  0  0
  -10.4953   -4.3612    2.3786 H   0  0  0  0  0  0  0  0  0  0  0  0
   -8.9062   -0.3702    0.4821 H   0  0  0  0  0  0  0  0  0  0  0  0
  -10.1538    0.3034    1.5629 H   0  0  0  0  0  0  0  0  0  0  0  0
   -8.3465    0.5612    1.8885 H   0  0  0  0  0  0  0  0  0  0  0  0
   -7.4523   -0.7944    3.4511 H   0  0  0  0  0  0  0  0  0  0  0  0
   -1.0731   -5.3853    1.2144 H   0  0  0  0  0  0  0  0  0  0  0  0
   -0.7323   -5.7533    2.9133 H   0  0  0  0  0  0  0  0  0  0  0  0
    1.3011   -4.2330    2.7812 H   0  0  0  0  0  0  0  0  0  0  0  0
    1.9489   -3.1851    0.7440 H   0  0  0  0  0  0  0  0  0  0  0  0
    1.5874   -4.2091   -1.2277 H   0  0  0  0  0  0  0  0  0  0  0  0
   -0.0295   -4.9496   -0.7042 H   0  0  0  0  0  0  0  0  0  0  0  0
    2.8576   -5.5120    0.1023 H   0  0  0  0  0  0  0  0  0  0  0  0
    1.5203   -8.6166    0.9467 H   0  0  0  0  0  0  0  0  0  0  0  0
   -0.0333  -10.3348   -4.3788 H   0  0  0  0  0  0  0  0  0  0  0  0
    1.6580  -10.7736   -4.1007 H   0  0  0  0  0  0  0  0  0  0  0  0
    1.3527   -5.6806   -4.8955 H   0  0  0  0  0  0  0  0  0  0  0  0
    0.6904    1.4107   -0.3762 H   0  0  0  0  0  0  0  0  0  0  0  0
    1.8403    0.3925   -1.2271 H   0  0  0  0  0  0  0  0  0  0  0  0
    0.4036    0.5121   -3.2742 H   0  0  0  0  0  0  0  0  0  0  0  0
    1.7223    2.2513   -3.8650 H   0  0  0  0  0  0  0  0  0  0  0  0
   -0.2155    3.5241   -4.1907 H   0  0  0  0  0  0  0  0  0  0  0  0
    0.5365    4.5449   -2.8974 H   0  0  0  0  0  0  0  0  0  0  0  0
   -0.6291    3.3708   -1.1435 H   0  0  0  0  0  0  0  0  0  0  0  0
   -5.9300    6.6665   -2.5334 H   0  0  0  0  0  0  0  0  0  0  0  0
   -6.4211    5.5530   -3.8385 H   0  0  0  0  0  0  0  0  0  0  0  0
   -5.1890    3.3519   -3.9272 H   0  0  0  0  0  0  0  0  0  0  0  0
   -3.0413    2.1012   -3.5135 H   0  0  0  0  0  0  0  0  0  0  0  0
    4.5044    0.7386   -1.9353 H   0  0  0  0  0  0  0  0  0  0  0  0
    3.1881    0.4684   -3.1943 H   0  0  0  0  0  0  0  0  0  0  0  0
    6.2024    0.4208   -3.6615 H   0  0  0  0  0  0  0  0  0  0  0  0
    3.8183   -0.0421   -5.4959 H   0  0  0  0  0  0  0  0  0  0  0  0
    5.5886    1.7732   -5.3697 H   0  0  0  0  0  0  0  0  0  0  0  0
    6.5691   -1.2099   -5.6196 H   0  0  0  0  0  0  0  0  0  0  0  0
    5.0322   -1.6034   -6.6018 H   0  0  0  0  0  0  0  0  0  0  0  0
    3.8632   -2.2415   -4.5706 H   0  0  0  0  0  0  0  0  0  0  0  0
    4.6713   -3.6464   -2.0812 H   0  0  0  0  0  0  0  0  0  0  0  0
    7.7147   -5.4942   -8.6873 H   0  0  0  0  0  0  0  0  0  0  0  0
    9.0761   -4.6350   -7.9602 H   0  0  0  0  0  0  0  0  0  0  0  0
    6.6247   -3.3697   -6.6304 H   0  0  0  0  0  0  0  0  0  0  0  0
  1  2  1  0
  1121  1  0
  2  3  1  0
  2122  1  0
  2123  1  0
  3  4  1  0
  3  5  1  0
  3124  1  0
  4  8  1  0
  5  7  1  0
  5  6  1  0
  5125  1  0
  6 17  1  0
  7  8  1  0
  7126  1  0
  7127  1  0
  8  9  1  0
  8128  1  0
  9 16  1  0
  9 10  1  0
 10 12  1  0
 10 11  2  0
 12 13  2  0
 13 15  1  0
 13 14  1  0
 14129  1  0
 14130  1  0
 15 16  2  0
 15131  1  0
 16132  1  0
 17 20  1  0
 17 19  2  0
 17 18  1  0
 20 21  1  0
 21 22  1  0
 21133  1  0
 21134  1  0
 22 24  1  0
 22 23  1  0
 22135  1  0
 23 27  1  0
 24 25  1  0
 24 26  1  0
 24136  1  0
 25 39  1  0
 26 27  1  0
 26137  1  0
 26138  1  0
 27 28  1  0
 27139  1  0
 28 38  1  0
 28 29  1  0
 29 30  2  0
 29140  1  0
 30 31  1  0
 31 32  1  0
 31 38  2  0
 32 33  2  0
 32 34  1  0
 34 35  2  0
 35 36  1  0
 35 37  1  0
 36141  1  0
 36142  1  0
 37 38  1  0
 37143  1  0
 39 41  2  0
 39 42  1  0
 39 40  1  0
 42 43  1  0
 43 44  1  0
 43144  1  0
 43145  1  0
 44 46  1  0
 44 45  1  0
 44146  1  0
 45 49  1  0
 46 48  1  0
 46 47  1  0
 46147  1  0
 47 59  1  0
 48 49  1  0
 48148  1  0
 48149  1  0
 49 50  1  0
 49150  1  0
 50 51  1  0
 50 58  1  0
 51 53  1  0
 51 52  2  0
 53 54  1  0
 53151  1  0
 54 55  2  0
 54 56  1  0
 56 57  1  0
 56 58  2  0
 57152  1  0
 57153  1  0
 57154  1  0
 58155  1  0
 59 61  2  0
 59 62  1  0
 59 60  1  0
 62 63  1  0
 63 64  1  0
 63156  1  0
 63157  1  0
 64 66  1  0
 64 65  1  0
 64158  1  0
 65 69  1  0
 66 68  1  0
 66 67  1  0
 66159  1  0
 67 80  1  0
 68 69  1  0
 68160  1  0
 68161  1  0
 69 70  1  0
 69162  1  0
 70 79  1  0
 70 71  1  0
 71 72  2  0
 71163  1  0
 72 73  1  0
 73 79  2  0
 73 74  1  0
 74 76  2  0
 74 75  1  0
 75164  1  0
 75165  1  0
 76 77  1  0
 77 78  2  0
 77166  1  0
 78 79  1  0
 80 83  1  0
 80 82  2  0
 80 81  1  0
 83 84  1  0
 84 85  1  0
 84167  1  0
 84168  1  0
 85 87  1  0
 85 86  1  0
 85169  1  0
 86 90  1  0
 87 88  1  0
 87 89  1  0
 87170  1  0
 88 99  1  0
 89 90  1  0
 89171  1  0
 89172  1  0
 90 91  1  0
 90173  1  0
 91 98  1  0
 91 92  1  0
 92 93  2  0
 92 94  1  0
 94 95  2  0
 95 97  1  0
 95 96  1  0
 96174  1  0
 96175  1  0
 97 98  2  0
 97176  1  0
 98177  1  0
 99100  2  0
 99101  1  0
 99102  1  0
102103  1  0
103104  1  0
103178  1  0
103179  1  0
104105  1  0
104106  1  0
104180  1  0
105109  1  0
106108  1  0
106107  1  0
106181  1  0
107182  1  0
108109  1  0
108183  1  0
108184  1  0
109110  1  0
109185  1  0
110111  1  0
110120  1  0
111112  2  0
111186  1  0
112113  1  0
113114  1  0
113120  2  0
114115  2  0
114116  1  0
116117  2  0
117118  1  0
117119  1  0
118187  1  0
118188  1  0
119120  1  0
119189  1  0
M  CHG  5  18  -1  40  -1  60  -1  81  -1 101  -1
M  END
$$$$
DNA (5'-D(*CP*GP*TP*AP*CP*G)-3')
     RDKit          3D

189203  0  0  0  0  0  0  0  0999 V2000
   -8.3430    5.5995    2.3744 O   0  0  0  0  0  0  0  0  0  0  0  0
   -7.4151    4.5744    2.2101 C   0  0  0  0  0  0  0  0  0  0  0  0
   -6.2243    5.1217    1.4752 C   0  0  0  0  0  0  0  0  0  0  0  0
   -6.5649    5.6021    0.2123 O   0  0  0  0  0  0  0  0  0  0  0  0
   -5.2721    3.9796    1.0909 C   0  0  0  0  0  0  0  0  0  0  0  0
   -6.0076    3.1045    0.3384 O   0  0  0  0  0  0  0  0  0  0  0  0
   -4.3763    4.7667    0.1134 C   0  0  0  0  0  0  0  0  0  0  0  0
   -5.3744    5.6792   -0.5107 C   0  0  0  0  0  0  0  0  0  0  0  0
   -5.5962    5.4953   -1.9140 N   0  0  0  0  0  0  0  0  0  0  0  0
   -6.1397    6.5254   -2.6168 C   0  0  0  0  0  0  0  0  0  0  0  0
   -6.4113    7.5887   -2.0065 O   0  0  0  0  0  0  0  0  0  0  0  0
   -6.3854    6.4154   -3.9404 N   0  0  0  0  0  0  0  0  0  0  0  0
   -6.1176    5.3127   -4.6357 C   0  0  0  0  0  0  0  0  0  0  0  0
   -6.3595    5.1513   -6.0255 N   0  0  0  0  0  0  0  0  0  0  0  0
   -5.5653    4.2437   -3.9630 C   0  0  0  0  0  0  0  0  0  0  0  0
   -5.3254    4.3865   -2.6067 C   0  0  0  0  0  0  0  0  0  0  0  0
   -5.8087    1.4863    0.6984 P   0  0  0  0  0  0  0  0  0  0  0  0
   -7.2616    0.9039    1.3728 O   0  0  0  0  0  0  0  0  0  0  0  0
   -4.6314    1.1846    1.5609 O   0  0  0  0  0  0  0  0  0  0  0  0
   -5.5963    0.6806   -0.7839 O   0  0  0  0  0  0  0  0  0  0  0  0
   -4.2295    0.7582   -1.1712 C   0  0  0  0  0  0  0  0  0  0  0  0
   -4.1942    0.4292   -2.6076 C   0  0  0  0  0  0  0  0  0  0  0  0
   -4.6859   -0.8796   -2.8145 O   0  0  0  0  0  0  0  0  0  0  0  0
   -2.8960    0.2980   -3.2966 C   0  0  0  0  0  0  0  0  0  0  0  0
   -2.1224    1.4247   -3.4542 O   0  0  0  0  0  0  0  0  0  0  0  0
   -3.5164   -0.0757   -4.7005 C   0  0  0  0  0  0  0  0  0  0  0  0
   -4.6420   -0.9672   -4.2020 C   0  0  0  0  0  0  0  0  0  0  0  0
   -5.9518   -0.5163   -4.6740 N   0  0  0  0  0  0  0  0  0  0  0  0
   -7.0593   -0.2814   -3.9505 C   0  0  0  0  0  0  0  0  0  0  0  0
   -8.0588    0.1165   -4.7418 N   0  0  0  0  0  0  0  0  0  0  0  0
   -7.5457    0.1277   -5.9997 C   0  0  0  0  0  0  0  0  0  0  0  0
   -8.0801    0.4453   -7.2421 C   0  0  0  0  0  0  0  0  0  0  0  0
   -9.2938    0.8156   -7.3253 O   0  0  0  0  0  0  0  0  0  0  0  0
   -7.2938    0.3553   -8.3531 N   0  0  0  0  0  0  0  0  0  0  0  0
   -6.0059   -0.0382   -8.2589 C   0  0  0  0  0  0  0  0  0  0  0  0
   -5.1916   -0.1299   -9.4210 N   0  0  0  0  0  0  0  0  0  0  0  0
   -5.4647   -0.3518   -7.0607 N   0  0  0  0  0  0  0  0  0  0  0  0
   -6.2070   -0.2738   -5.9524 C   0  0  0  0  0  0  0  0  0  0  0  0
   -0.5460    1.0106   -3.8688 P   0  0  0  0  0  0  0  0  0  0  0  0
   -0.1580    1.5791   -5.4253 O   0  0  0  0  0  0  0  0  0  0  0  0
   -0.3183   -0.4768   -3.8677 O   0  0  0  0  0  0  0  0  0  0  0  0
    0.5494    1.6922   -2.7335 O   0  0  0  0  0  0  0  0  0  0  0  0
    1.6875    2.0931   -3.3798 C   0  0  0  0  0  0  0  0  0  0  0  0
    2.6560    2.9678   -2.6904 C   0  0  0  0  0  0  0  0  0  0  0  0
    3.6667    3.2407   -3.6523 O   0  0  0  0  0  0  0  0  0  0  0  0
    3.4065    2.4568   -1.5301 C   0  0  0  0  0  0  0  0  0  0  0  0
    2.8829    2.5632   -0.2712 O   0  0  0  0  0  0  0  0  0  0  0  0
    4.5131    3.5995   -1.5219 C   0  0  0  0  0  0  0  0  0  0  0  0
    4.8316    3.5394   -2.9895 C   0  0  0  0  0  0  0  0  0  0  0  0
    5.8521    2.5100   -3.1753 N   0  0  0  0  0  0  0  0  0  0  0  0
    5.7381    1.5696   -4.1328 C   0  0  0  0  0  0  0  0  0  0  0  0
    4.7450    1.5507   -4.9061 O   0  0  0  0  0  0  0  0  0  0  0  0
    6.6685    0.6004   -4.3231 N   0  0  0  0  0  0  0  0  0  0  0  0
    7.7610    0.5155   -3.5702 C   0  0  0  0  0  0  0  0  0  0  0  0
    8.6394   -0.3909   -3.7406 O   0  0  0  0  0  0  0  0  0  0  0  0
    7.9261    1.4601   -2.5692 C   0  0  0  0  0  0  0  0  0  0  0  0
    9.1189    1.4318   -1.6831 C   0  0  0  0  0  0  0  0  0  0  0  0
    6.9502    2.4419   -2.4028 C   0  0  0  0  0  0  0  0  0  0  0  0
    3.8515    1.6308    0.7915 P   0  0  0  0  0  0  0  0  0  0  0  0
    5.1647    2.5838    1.3504 O   0  0  0  0  0  0  0  0  0  0  0  0
    4.4774    0.4492    0.0745 O   0  0  0  0  0  0  0  0  0  0  0  0
    3.0427    1.1154    2.1546 O   0  0  0  0  0  0  0  0  0  0  0  0
    3.6443   -0.0578    2.6849 C   0  0  0  0  0  0  0  0  0  0  0  0
    2.9482   -0.4674    3.9491 C   0  0  0  0  0  0  0  0  0  0  0  0
    3.0952    0.5749    4.8617 O   0  0  0  0  0  0  0  0  0  0  0  0
    3.4544   -1.7123    4.5749 C   0  0  0  0  0  0  0  0  0  0  0  0
    2.4348   -2.6847    4.6779 O   0  0  0  0  0  0  0  0  0  0  0  0
    3.6637   -1.2621    6.0299 C   0  0  0  0  0  0  0  0  0  0  0  0
    2.7959   -0.0425    6.0678 C   0  0  0  0  0  0  0  0  0  0  0  0
    3.0438    0.7915    7.2193 N   0  0  0  0  0  0  0  0  0  0  0  0
    2.2156    0.8756    8.2859 C   0  0  0  0  0  0  0  0  0  0  0  0
    2.7476    1.7480    9.1901 N   0  0  0  0  0  0  0  0  0  0  0  0
    3.8928    2.2074    8.7017 C   0  0  0  0  0  0  0  0  0  0  0  0
    4.7852    3.1017    9.2391 C   0  0  0  0  0  0  0  0  0  0  0  0
    4.5222    3.6757   10.5101 N   0  0  0  0  0  0  0  0  0  0  0  0
    5.8847    3.3930    8.5110 N   0  0  0  0  0  0  0  0  0  0  0  0
    6.0702    2.8083    7.2992 C   0  0  0  0  0  0  0  0  0  0  0  0
    5.1903    1.9326    6.7811 N   0  0  0  0  0  0  0  0  0  0  0  0
    4.0955    1.6164    7.4613 C   0  0  0  0  0  0  0  0  0  0  0  0
    2.9764   -4.2379    4.3746 P   0  0  0  0  0  0  0  0  0  0  0  0
    4.5366   -4.2189    3.7453 O   0  0  0  0  0  0  0  0  0  0  0  0
    3.0521   -5.0246    5.6872 O   0  0  0  0  0  0  0  0  0  0  0  0
    1.9019   -5.0651    3.3623 O   0  0  0  0  0  0  0  0  0  0  0  0
    2.5297   -5.5292    2.2208 C   0  0  0  0  0  0  0  0  0  0  0  0
    1.6726   -6.3370    1.2986 C   0  0  0  0  0  0  0  0  0  0  0  0
    1.1541   -7.4798    1.8492 O   0  0  0  0  0  0  0  0  0  0  0  0
    2.4896   -6.7444    0.0730 C   0  0  0  0  0  0  0  0  0  0  0  0
    1.9572   -6.2388   -1.0754 O   0  0  0  0  0  0  0  0  0  0  0  0
    2.5139   -8.2176    0.2429 C   0  0  0  0  0  0  0  0  0  0  0  0
    1.1086   -8.3959    0.8075 C   0  0  0  0  0  0  0  0  0  0  0  0
    0.7780   -9.7121    1.2042 N   0  0  0  0  0  0  0  0  0  0  0  0
   -0.3386   -9.8831    1.9793 C   0  0  0  0  0  0  0  0  0  0  0  0
   -1.0537   -8.8995    2.3270 O   0  0  0  0  0  0  0  0  0  0  0  0
   -0.7332  -11.0859    2.4073 N   0  0  0  0  0  0  0  0  0  0  0  0
   -0.0931  -12.2364    2.1327 C   0  0  0  0  0  0  0  0  0  0  0  0
   -0.5360  -13.5043    2.5958 N   0  0  0  0  0  0  0  0  0  0  0  0
    1.0558  -12.0971    1.3409 C   0  0  0  0  0  0  0  0  0  0  0  0
    1.4395  -10.8455    0.9127 C   0  0  0  0  0  0  0  0  0  0  0  0
    2.4984   -4.7587   -1.6077 P   0  0  0  0  0  0  0  0  0  0  0  0
    2.7337   -4.7163   -3.1076 O   0  0  0  0  0  0  0  0  0  0  0  0
    3.9980   -4.4646   -0.8880 O   0  0  0  0  0  0  0  0  0  0  0  0
    1.4756   -3.5097   -1.2232 O   0  0  0  0  0  0  0  0  0  0  0  0
    1.9397   -2.5170   -0.4149 C   0  0  0  0  0  0  0  0  0  0  0  0
    0.7278   -1.9984    0.3440 C   0  0  0  0  0  0  0  0  0  0  0  0
    0.9805   -0.9784    1.2148 O   0  0  0  0  0  0  0  0  0  0  0  0
   -0.1954   -1.3666   -0.6709 C   0  0  0  0  0  0  0  0  0  0  0  0
   -0.9048   -2.3023   -1.3994 O   0  0  0  0  0  0  0  0  0  0  0  0
   -1.1409   -0.6223    0.2917 C   0  0  0  0  0  0  0  0  0  0  0  0
   -0.2485   -0.4074    1.4830 C   0  0  0  0  0  0  0  0  0  0  0  0
   -0.1966    0.9837    1.8840 N   0  0  0  0  0  0  0  0  0  0  0  0
   -0.0420    2.0040    1.0213 C   0  0  0  0  0  0  0  0  0  0  0  0
   -0.0395    3.1858    1.6618 N   0  0  0  0  0  0  0  0  0  0  0  0
   -0.1968    2.9319    2.9757 C   0  0  0  0  0  0  0  0  0  0  0  0
   -0.2705    3.7467    4.1076 C   0  0  0  0  0  0  0  0  0  0  0  0
   -0.1799    4.9992    3.9470 O   0  0  0  0  0  0  0  0  0  0  0  0
   -0.4335    3.1589    5.2969 N   0  0  0  0  0  0  0  0  0  0  0  0
   -0.5250    1.8073    5.4004 C   0  0  0  0  0  0  0  0  0  0  0  0
   -0.7033    1.2428    6.7046 N   0  0  0  0  0  0  0  0  0  0  0  0
   -0.4575    1.0001    4.3235 N   0  0  0  0  0  0  0  0  0  0  0  0
   -0.2942    1.5377    3.0976 C   0  0  0  0  0  0  0  0  0  0  0  0
   -7.8636    6.4046    2.7064 H   0  0  0  0  0  0  0  0  0  0  0  0
   -7.0893    4.2777    3.2251 H   0  0  0  0  0  0  0  0  0  0  0  0
   -7.8523    3.7533    1.6304 H   0  0  0  0  0  0  0  0  0  0  0  0
   -5.7054    5.9040    2.0745 H   0  0  0  0  0  0  0  0  0  0  0  0
   -4.7003    3.5819    1.9163 H   0  0  0  0  0  0  0  0  0  0  0  0
   -3.6866    5.3826    0.7656 H   0  0  0  0  0  0  0  0  0  0  0  0
   -3.7962    4.1309   -0.5410 H   0  0  0  0  0  0  0  0  0  0  0  0
   -5.0430    6.7549   -0.3943 H   0  0  0  0  0  0  0  0  0  0  0  0
   -7.0182    4.4276   -6.4214 H   0  0  0  0  0  0  0  0  0  0  0  0
   -5.8810    5.7618   -6.7347 H   0  0  0  0  0  0  0  0  0  0  0  0
   -5.3322    3.3184   -4.5012 H   0  0  0  0  0  0  0  0  0  0  0  0
   -4.8925    3.5296   -2.1133 H   0  0  0  0  0  0  0  0  0  0  0  0
   -3.8895    1.7479   -0.8847 H   0  0  0  0  0  0  0  0  0  0  0  0
   -3.7680   -0.0910   -0.6208 H   0  0  0  0  0  0  0  0  0  0  0  0
   -4.8673    1.0827   -3.2299 H   0  0  0  0  0  0  0  0  0  0  0  0
   -2.3166   -0.5942   -3.0497 H   0  0  0  0  0  0  0  0  0  0  0  0
   -3.9092    0.8309   -5.1538 H   0  0  0  0  0  0  0  0  0  0  0  0
   -2.7677   -0.5810   -5.3032 H   0  0  0  0  0  0  0  0  0  0  0  0
   -4.4505   -2.0180   -4.5293 H   0  0  0  0  0  0  0  0  0  0  0  0
   -7.1716   -0.3896   -2.8618 H   0  0  0  0  0  0  0  0  0  0  0  0
   -5.1650    0.7072  -10.0786 H   0  0  0  0  0  0  0  0  0  0  0  0
   -4.6308   -0.9808   -9.6403 H   0  0  0  0  0  0  0  0  0  0  0  0
   -4.4541   -0.6537   -7.0341 H   0  0  0  0  0  0  0  0  0  0  0  0
    2.2581    1.2293   -3.8160 H   0  0  0  0  0  0  0  0  0  0  0  0
    1.3318    2.6366   -4.3117 H   0  0  0  0  0  0  0  0  0  0  0  0
    2.1839    3.9402   -2.4273 H   0  0  0  0  0  0  0  0  0  0  0  0
    4.0495    1.5681   -1.7089 H   0  0  0  0  0  0  0  0  0  0  0  0
    5.3045    3.3438   -0.8370 H   0  0  0  0  0  0  0  0  0  0  0  0
    3.9762    4.5507   -1.3339 H   0  0  0  0  0  0  0  0  0  0  0  0
    5.3044    4.4875   -3.2994 H   0  0  0  0  0  0  0  0  0  0  0  0
    6.5280   -0.1154   -5.0929 H   0  0  0  0  0  0  0  0  0  0  0  0
    9.9735    2.0114   -2.0650 H   0  0  0  0  0  0  0  0  0  0  0  0
    9.4500    0.3914   -1.4664 H   0  0  0  0  0  0  0  0  0  0  0  0
    8.8734    1.8706   -0.6865 H   0  0  0  0  0  0  0  0  0  0  0  0
    7.1402    3.1492   -1.6114 H   0  0  0  0  0  0  0  0  0  0  0  0
    3.7438   -0.8500    1.9325 H   0  0  0  0  0  0  0  0  0  0  0  0
    4.6873    0.2650    2.9543 H   0  0  0  0  0  0  0  0  0  0  0  0
    1.8509   -0.5761    3.8129 H   0  0  0  0  0  0  0  0  0  0  0  0
    4.3946   -2.1243    4.1879 H   0  0  0  0  0  0  0  0  0  0  0  0
    3.3036   -1.9993    6.7472 H   0  0  0  0  0  0  0  0  0  0  0  0
    4.7310   -1.0080    6.1324 H   0  0  0  0  0  0  0  0  0  0  0  0
    1.7275   -0.3363    6.0317 H   0  0  0  0  0  0  0  0  0  0  0  0
    1.2824    0.3803    8.4794 H   0  0  0  0  0  0  0  0  0  0  0  0
    3.8956    4.5280   10.5005 H   0  0  0  0  0  0  0  0  0  0  0  0
    4.9177    3.2926   11.4116 H   0  0  0  0  0  0  0  0  0  0  0  0
    6.9851    3.1055    6.7858 H   0  0  0  0  0  0  0  0  0  0  0  0
    2.8864   -4.6227    1.6794 H   0  0  0  0  0  0  0  0  0  0  0  0
    3.4926   -6.0691    2.4778 H   0  0  0  0  0  0  0  0  0  0  0  0
    0.8124   -5.6965    1.0041 H   0  0  0  0  0  0  0  0  0  0  0  0
    3.4751   -6.2986    0.2343 H   0  0  0  0  0  0  0  0  0  0  0  0
    2.7235   -8.8247   -0.6422 H   0  0  0  0  0  0  0  0  0  0  0  0
    3.2090   -8.5366    1.0482 H   0  0  0  0  0  0  0  0  0  0  0  0
    0.4344   -7.9848    0.0307 H   0  0  0  0  0  0  0  0  0  0  0  0
   -0.6728  -13.7252    3.6201 H   0  0  0  0  0  0  0  0  0  0  0  0
   -0.7514  -14.3076    1.9365 H   0  0  0  0  0  0  0  0  0  0  0  0
    1.6195  -12.9909    1.0876 H   0  0  0  0  0  0  0  0  0  0  0  0
    2.3264  -10.7327    0.3014 H   0  0  0  0  0  0  0  0  0  0  0  0
    2.7858   -2.7515    0.2401 H   0  0  0  0  0  0  0  0  0  0  0  0
    2.2148   -1.6609   -1.1117 H   0  0  0  0  0  0  0  0  0  0  0  0
    0.1568   -2.8247    0.8110 H   0  0  0  0  0  0  0  0  0  0  0  0
    0.4057   -0.6728   -1.2527 H   0  0  0  0  0  0  0  0  0  0  0  0
   -0.3725   -2.5699   -2.1758 H   0  0  0  0  0  0  0  0  0  0  0  0
   -1.4270    0.2953   -0.2433 H   0  0  0  0  0  0  0  0  0  0  0  0
   -1.9524   -1.3249    0.5087 H   0  0  0  0  0  0  0  0  0  0  0  0
   -0.6957   -0.9569    2.3490 H   0  0  0  0  0  0  0  0  0  0  0  0
    0.0676    1.9066   -0.0405 H   0  0  0  0  0  0  0  0  0  0  0  0
   -0.9443    0.2100    6.7555 H   0  0  0  0  0  0  0  0  0  0  0  0
   -0.5986    1.8235    7.5722 H   0  0  0  0  0  0  0  0  0  0  0  0
   -0.5277   -0.0211    4.4153 H   0  0  0  0  0  0  0  0  0  0  0  0
  1  2  1  0
  1121  1  0
  2  3  1  0
  2122  1  0
  2123  1  0
  3  4  1  0
  3  5  1  0
  3124  1  0
  4  8  1  0
  5  7  1  0
  5  6  1  0
  5125  1  0
  6 17  1  0
  7  8  1  0
  7126  1  0
  7127  1  0
  8  9  1  0
  8128  1  0
  9 16  1  0
  9 10  1  0
 10 12  1  0
 10 11  2  0
 12 13  2  0
 13 15  1  0
 13 14  1  0
 14129  1  0
 14130  1  0
 15 16  2  0
 15131  1  0
 16132  1  0
 17 20  1  0
 17 19  2  0
 17 18  1  0
 20 21  1  0
 21 22  1  0
 21133  1  0
 21134  1  0
 22 24  1  0
 22 23  1  0
 22135  1  0
 23 27  1  0
 24 25  1  0
 24 26  1  0
 24136  1  0
 25 39  1  0
 26 27  1  0
 26137  1  0
 26138  1  0
 27 28  1  0
 27139  1  0
 28 38  1  0
 28 29  1  0
 29 30  2  0
 29140  1  0
 30 31  1  0
 31 32  1  0
 31 38  2  0
 32 33  2  0
 32 34  1  0
 34 35  2  0
 35 36  1  0
 35 37  1  0
 36141  1  0
 36142  1  0
 37 38  1  0
 37143  1  0
 39 41  2  0
 39 42  1  0
 39 40  1  0
 42 43  1  0
 43 44  1  0
 43144  1  0
 43145  1  0
 44 46  1  0
 44 45  1  0
 44146  1  0
 45 49  1  0
 46 48  1  0
 46 47  1  0
 46147  1  0
 47 59  1  0
 48 49  1  0
 48148  1  0
 48149  1  0
 49 50  1  0
 49150  1  0
 50 51  1  0
 50 58  1  0
 51 53  1  0
 51 52  2  0
 53 54  1  0
 53151  1  0
 54 55  2  0
 54 56  1  0
 56 57  1  0
 56 58  2  0
 57152  1  0
 57153  1  0
 57154  1  0
 58155  1  0
 59 61  2  0
 59 62  1  0
 59 60  1  0
 62 63  1  0
 63 64  1  0
 63156  1  0
 63157  1  0
 64 66  1  0
 64 65  1  0
 64158  1  0
 65 69  1  0
 66 68  1  0
 66 67  1  0
 66159  1  0
 67 80  1  0
 68 69  1  0
 68160  1  0
 68161  1  0
 69 70  1  0
 69162  1  0
 70 79  1  0
 70 71  1  0
 71 72  2  0
 71163  1  0
 72 73  1  0
 73 79  2  0
 73 74  1  0
 74 76  2  0
 74 75  1  0
 75164  1  0
 75165  1  0
 76 77  1  0
 77 78  2  0
 77166  1  0
 78 79  1  0
 80 83  1  0
 80 82  2  0
 80 81  1  0
 83 84  1  0
 84 85  1  0
 84167  1  0
 84168  1  0
 85 87  1  0
 85 86  1  0
 85169  1  0
 86 90  1  0
 87 88  1  0
 87 89  1  0
 87170  1  0
 88 99  1  0
 89 90  1  0
 89171  1  0
 89172  1  0
 90 91  1  0
 90173  1  0
 91 98  1  0
 91 92  1  0
 92 93  2  0
 92 94  1  0
 94 95  2  0
 95 97  1  0
 95 96  1  0
 96174  1  0
 96175  1  0
 97 98  2  0
 97176  1  0
 98177  1  0
 99100  2  0
 99101  1  0
 99102  1  0
102103  1  0
103104  1  0
103178  1  0
103179  1  0
104105  1  0
104106  1  0
104180  1  0
105109  1  0
106108  1  0
106107  1  0
106181  1  0
107182  1  0
108109  1  0
108183  1  0
108184  1  0
109110  1  0
109185  1  0
110111  1  0
110120  1  0
111112  2  0
111186  1  0
112113  1  0
113114  1  0
113120  2  0
114115  2  0
114116  1  0
116117  2  0
117118  1  0
117119  1  0
118187  1  0
118188  1  0
119120  1  0
119189  1  0
M  CHG  5  18  -1  40  -1  60  -1  81  -1 101  -1
M  END
$$$$
DNA (5'-D(*CP*GP*TP*AP*CP*G)-3')
     RDKit          3D

189203  0  0  0  0  0  0  0  0999 V2000
   -1.6332   -3.2721    6.9650 O   0  0  0  0  0  0  0  0  0  0  0  0
   -1.9999   -3.3680    5.6259 C   0  0  0  0  0  0  0  0  0  0  0  0
   -2.6215   -2.1307    5.0809 C   0  0  0  0  0  0  0  0  0  0  0  0
   -2.9443   -2.3739    3.7466 O   0  0  0  0  0  0  0  0  0  0  0  0
   -1.7893   -0.9011    5.1085 C   0  0  0  0  0  0  0  0  0  0  0  0
   -0.4705   -1.1522    4.7658 O   0  0  0  0  0  0  0  0  0  0  0  0
   -2.4838   -0.0866    4.0043 C   0  0  0  0  0  0  0  0  0  0  0  0
   -3.0868   -1.1367    3.1416 C   0  0  0  0  0  0  0  0  0  0  0  0
   -4.5122   -0.9422    2.9294 N   0  0  0  0  0  0  0  0  0  0  0  0
   -5.3480   -2.0069    2.8671 C   0  0  0  0  0  0  0  0  0  0  0  0
   -4.8459   -3.1477    2.9944 O   0  0  0  0  0  0  0  0  0  0  0  0
   -6.6721   -1.8680    2.6752 N   0  0  0  0  0  0  0  0  0  0  0  0
   -7.2313   -0.6497    2.5354 C   0  0  0  0  0  0  0  0  0  0  0  0
   -8.6312   -0.5081    2.3370 N   0  0  0  0  0  0  0  0  0  0  0  0
   -6.4158    0.4632    2.5923 C   0  0  0  0  0  0  0  0  0  0  0  0
   -5.0654    0.2791    2.7904 C   0  0  0  0  0  0  0  0  0  0  0  0
    0.5886   -0.3903    5.8233 P   0  0  0  0  0  0  0  0  0  0  0  0
    0.1552    1.2313    6.0735 O   0  0  0  0  0  0  0  0  0  0  0  0
    0.4903   -1.0609    7.1720 O   0  0  0  0  0  0  0  0  0  0  0  0
    2.1899   -0.4904    5.3382 O   0  0  0  0  0  0  0  0  0  0  0  0
    2.5838    0.5717    4.5330 C   0  0  0  0  0  0  0  0  0  0  0  0
    4.0600    0.5058    4.3280 C   0  0  0  0  0  0  0  0  0  0  0  0
    4.5372   -0.6241    3.7237 O   0  0  0  0  0  0  0  0  0  0  0  0
    4.6054    1.6937    3.5702 C   0  0  0  0  0  0  0  0  0  0  0  0
    3.7466    2.7633    3.5591 O   0  0  0  0  0  0  0  0  0  0  0  0
    4.7744    1.1155    2.1776 C   0  0  0  0  0  0  0  0  0  0  0  0
    4.6600   -0.3743    2.3710 C   0  0  0  0  0  0  0  0  0  0  0  0
    5.8747   -0.9732    1.8564 N   0  0  0  0  0  0  0  0  0  0  0  0
    6.0174   -1.4332    0.5806 C   0  0  0  0  0  0  0  0  0  0  0  0
    7.2589   -1.9226    0.4207 N   0  0  0  0  0  0  0  0  0  0  0  0
    7.9185   -1.7814    1.5869 C   0  0  0  0  0  0  0  0  0  0  0  0
    9.2236   -2.1262    1.9498 C   0  0  0  0  0  0  0  0  0  0  0  0
   10.0204   -2.6674    1.1401 O   0  0  0  0  0  0  0  0  0  0  0  0
    9.5592   -1.8367    3.2239 N   0  0  0  0  0  0  0  0  0  0  0  0
    8.7217   -1.2577    4.1043 C   0  0  0  0  0  0  0  0  0  0  0  0
    9.2037   -1.0084    5.4189 N   0  0  0  0  0  0  0  0  0  0  0  0
    7.4584   -0.9300    3.7341 N   0  0  0  0  0  0  0  0  0  0  0  0
    7.0482   -1.1845    2.4893 C   0  0  0  0  0  0  0  0  0  0  0  0
    4.5883    4.1318    4.1138 P   0  0  0  0  0  0  0  0  0  0  0  0
    4.8048    3.9364    5.7865 O   0  0  0  0  0  0  0  0  0  0  0  0
    5.9223    4.2738    3.4669 O   0  0  0  0  0  0  0  0  0  0  0  0
    3.6522    5.5275    3.9178 O   0  0  0  0  0  0  0  0  0  0  0  0
    3.2940    5.7197    2.5781 C   0  0  0  0  0  0  0  0  0  0  0  0
    2.0784    6.6259    2.6160 C   0  0  0  0  0  0  0  0  0  0  0  0
    1.0822    5.9904    3.3423 O   0  0  0  0  0  0  0  0  0  0  0  0
    1.5063    6.9324    1.2624 C   0  0  0  0  0  0  0  0  0  0  0  0
    1.4690    5.8362    0.4436 O   0  0  0  0  0  0  0  0  0  0  0  0
    0.0645    7.3089    1.7138 C   0  0  0  0  0  0  0  0  0  0  0  0
   -0.1565    6.3254    2.8783 C   0  0  0  0  0  0  0  0  0  0  0  0
   -0.8218    5.1305    2.3433 N   0  0  0  0  0  0  0  0  0  0  0  0
   -0.2864    3.9036    2.4396 C   0  0  0  0  0  0  0  0  0  0  0  0
    0.8112    3.7359    3.0031 O   0  0  0  0  0  0  0  0  0  0  0  0
   -0.8896    2.7940    1.9435 N   0  0  0  0  0  0  0  0  0  0  0  0
   -2.0842    2.8650    1.3127 C   0  0  0  0  0  0  0  0  0  0  0  0
   -2.6059    1.8125    0.8697 O   0  0  0  0  0  0  0  0  0  0  0  0
   -2.6525    4.1140    1.2021 C   0  0  0  0  0  0  0  0  0  0  0  0
   -3.9805    4.1864    0.5017 C   0  0  0  0  0  0  0  0  0  0  0  0
   -2.0266    5.2266    1.7115 C   0  0  0  0  0  0  0  0  0  0  0  0
    1.9299    6.1901   -1.1426 P   0  0  0  0  0  0  0  0  0  0  0  0
    3.1482    5.1297   -1.6063 O   0  0  0  0  0  0  0  0  0  0  0  0
    2.4273    7.5904   -1.2425 O   0  0  0  0  0  0  0  0  0  0  0  0
    0.6181    5.9888   -2.2007 O   0  0  0  0  0  0  0  0  0  0  0  0
    0.6114    4.7267   -2.7932 C   0  0  0  0  0  0  0  0  0  0  0  0
   -0.8030    4.2512   -3.0501 C   0  0  0  0  0  0  0  0  0  0  0  0
   -1.4546    5.1222   -3.8771 O   0  0  0  0  0  0  0  0  0  0  0  0
   -0.8512    2.8936   -3.7317 C   0  0  0  0  0  0  0  0  0  0  0  0
   -0.8166    1.8258   -2.8845 O   0  0  0  0  0  0  0  0  0  0  0  0
   -2.2947    3.0176   -4.2705 C   0  0  0  0  0  0  0  0  0  0  0  0
   -2.2755    4.4344   -4.7088 C   0  0  0  0  0  0  0  0  0  0  0  0
   -3.6184    5.0146   -4.7700 N   0  0  0  0  0  0  0  0  0  0  0  0
   -3.7926    6.3402   -5.0642 C   0  0  0  0  0  0  0  0  0  0  0  0
   -5.1050    6.5800   -5.0450 N   0  0  0  0  0  0  0  0  0  0  0  0
   -5.7409    5.4466   -4.7493 C   0  0  0  0  0  0  0  0  0  0  0  0
   -7.0761    5.1386   -4.6014 C   0  0  0  0  0  0  0  0  0  0  0  0
   -8.0604    6.1491   -4.7753 N   0  0  0  0  0  0  0  0  0  0  0  0
   -7.4291    3.8784   -4.2920 N   0  0  0  0  0  0  0  0  0  0  0  0
   -6.4940    2.9198   -4.1270 C   0  0  0  0  0  0  0  0  0  0  0  0
   -5.1669    3.1695   -4.2601 N   0  0  0  0  0  0  0  0  0  0  0  0
   -4.8081    4.4358   -4.5706 C   0  0  0  0  0  0  0  0  0  0  0  0
    0.3172    0.6533   -3.3332 P   0  0  0  0  0  0  0  0  0  0  0  0
    1.1190    1.2718   -4.7159 O   0  0  0  0  0  0  0  0  0  0  0  0
    1.3923    0.4529   -2.2819 O   0  0  0  0  0  0  0  0  0  0  0  0
   -0.5130   -0.7536   -3.7030 O   0  0  0  0  0  0  0  0  0  0  0  0
    0.1638   -1.9069   -3.3892 C   0  0  0  0  0  0  0  0  0  0  0  0
   -0.5541   -3.1758   -3.7595 C   0  0  0  0  0  0  0  0  0  0  0  0
   -0.8156   -3.2820   -5.1053 O   0  0  0  0  0  0  0  0  0  0  0  0
   -1.9041   -3.2526   -3.0945 C   0  0  0  0  0  0  0  0  0  0  0  0
   -1.8993   -2.6138   -1.8673 O   0  0  0  0  0  0  0  0  0  0  0  0
   -2.7820   -2.5246   -4.1014 C   0  0  0  0  0  0  0  0  0  0  0  0
   -2.0798   -2.8404   -5.3831 C   0  0  0  0  0  0  0  0  0  0  0  0
   -2.8089   -3.9686   -5.9875 N   0  0  0  0  0  0  0  0  0  0  0  0
   -4.0318   -3.7118   -6.5043 C   0  0  0  0  0  0  0  0  0  0  0  0
   -4.4888   -2.5368   -6.4460 O   0  0  0  0  0  0  0  0  0  0  0  0
   -4.7604   -4.7082   -7.0790 N   0  0  0  0  0  0  0  0  0  0  0  0
   -4.2890   -5.9749   -7.1506 C   0  0  0  0  0  0  0  0  0  0  0  0
   -5.0314   -7.0342   -7.7426 N   0  0  0  0  0  0  0  0  0  0  0  0
   -3.0233   -6.2320   -6.6135 C   0  0  0  0  0  0  0  0  0  0  0  0
   -2.2795   -5.2094   -6.0256 C   0  0  0  0  0  0  0  0  0  0  0  0
   -2.5358   -3.6368   -0.7102 P   0  0  0  0  0  0  0  0  0  0  0  0
   -3.6674   -2.9087    0.0143 O   0  0  0  0  0  0  0  0  0  0  0  0
   -3.2237   -4.9794   -1.4827 O   0  0  0  0  0  0  0  0  0  0  0  0
   -1.4193   -4.0789    0.4439 O   0  0  0  0  0  0  0  0  0  0  0  0
   -0.1978   -3.4304    0.2867 C   0  0  0  0  0  0  0  0  0  0  0  0
    0.7029   -4.0237    1.3824 C   0  0  0  0  0  0  0  0  0  0  0  0
    0.7410   -5.4004    1.0902 O   0  0  0  0  0  0  0  0  0  0  0  0
    2.1069   -3.5317    1.3168 C   0  0  0  0  0  0  0  0  0  0  0  0
    2.3495   -2.9164    0.1144 O   0  0  0  0  0  0  0  0  0  0  0  0
    2.9361   -4.7721    1.5667 C   0  0  0  0  0  0  0  0  0  0  0  0
    1.8938   -5.8557    1.6905 C   0  0  0  0  0  0  0  0  0  0  0  0
    2.3224   -7.0955    1.0722 N   0  0  0  0  0  0  0  0  0  0  0  0
    2.5581   -8.2997    1.6452 C   0  0  0  0  0  0  0  0  0  0  0  0
    2.9471   -9.1885    0.6847 N   0  0  0  0  0  0  0  0  0  0  0  0
    2.9598   -8.5537   -0.4959 C   0  0  0  0  0  0  0  0  0  0  0  0
    3.2606   -8.9175   -1.8128 C   0  0  0  0  0  0  0  0  0  0  0  0
    3.6205  -10.1074   -2.0560 O   0  0  0  0  0  0  0  0  0  0  0  0
    3.1535   -7.9795   -2.7699 N   0  0  0  0  0  0  0  0  0  0  0  0
    2.7735   -6.7151   -2.5241 C   0  0  0  0  0  0  0  0  0  0  0  0
    2.6556   -5.7180   -3.5309 N   0  0  0  0  0  0  0  0  0  0  0  0
    2.4879   -6.3765   -1.2578 N   0  0  0  0  0  0  0  0  0  0  0  0
    2.5692   -7.2525   -0.2422 C   0  0  0  0  0  0  0  0  0  0  0  0
   -1.0168   -4.0559    7.1177 H   0  0  0  0  0  0  0  0  0  0  0  0
   -1.1882   -3.7980    5.0029 H   0  0  0  0  0  0  0  0  0  0  0  0
   -2.8056   -4.1603    5.6095 H   0  0  0  0  0  0  0  0  0  0  0  0
   -3.5803   -1.9623    5.6117 H   0  0  0  0  0  0  0  0  0  0  0  0
   -1.8725   -0.3339    6.0530 H   0  0  0  0  0  0  0  0  0  0  0  0
   -3.2037    0.5705    4.4978 H   0  0  0  0  0  0  0  0  0  0  0  0
   -1.7273    0.4519    3.4191 H   0  0  0  0  0  0  0  0  0  0  0  0
   -2.6109   -1.1856    2.1417 H   0  0  0  0  0  0  0  0  0  0  0  0
   -8.9456   -0.4299    1.3280 H   0  0  0  0  0  0  0  0  0  0  0  0
   -9.3254   -0.4815    3.1211 H   0  0  0  0  0  0  0  0  0  0  0  0
   -6.8073    1.4721    2.4852 H   0  0  0  0  0  0  0  0  0  0  0  0
   -4.4209    1.1243    2.8349 H   0  0  0  0  0  0  0  0  0  0  0  0
    2.3626    1.5094    5.0601 H   0  0  0  0  0  0  0  0  0  0  0  0
    2.0044    0.4629    3.5932 H   0  0  0  0  0  0  0  0  0  0  0  0
    4.5191    0.5493    5.3594 H   0  0  0  0  0  0  0  0  0  0  0  0
    5.6195    1.9606    3.9322 H   0  0  0  0  0  0  0  0  0  0  0  0
    5.7523    1.4089    1.7463 H   0  0  0  0  0  0  0  0  0  0  0  0
    3.9996    1.4753    1.4747 H   0  0  0  0  0  0  0  0  0  0  0  0
    3.8084   -0.7415    1.7784 H   0  0  0  0  0  0  0  0  0  0  0  0
    5.2886   -1.4303   -0.2174 H   0  0  0  0  0  0  0  0  0  0  0  0
    9.4235   -1.7999    6.0711 H   0  0  0  0  0  0  0  0  0  0  0  0
    9.3268    0.0052    5.6952 H   0  0  0  0  0  0  0  0  0  0  0  0
    6.8146   -0.4829    4.4257 H   0  0  0  0  0  0  0  0  0  0  0  0
    4.1129    6.2915    2.0960 H   0  0  0  0  0  0  0  0  0  0  0  0
    3.1562    4.7988    2.0113 H   0  0  0  0  0  0  0  0  0  0  0  0
    2.3679    7.5588    3.1171 H   0  0  0  0  0  0  0  0  0  0  0  0
    1.9717    7.7766    0.7758 H   0  0  0  0  0  0  0  0  0  0  0  0
   -0.5893    7.0042    0.9101 H   0  0  0  0  0  0  0  0  0  0  0  0
    0.0420    8.3454    2.0407 H   0  0  0  0  0  0  0  0  0  0  0  0
   -0.8198    6.8308    3.6025 H   0  0  0  0  0  0  0  0  0  0  0  0
   -0.4227    1.8772    2.0473 H   0  0  0  0  0  0  0  0  0  0  0  0
   -4.0343    5.1781    0.0515 H   0  0  0  0  0  0  0  0  0  0  0  0
   -4.7589    3.9872    1.2411 H   0  0  0  0  0  0  0  0  0  0  0  0
   -3.9724    3.4087   -0.3156 H   0  0  0  0  0  0  0  0  0  0  0  0
   -2.5124    6.1931    1.6007 H   0  0  0  0  0  0  0  0  0  0  0  0
    1.0437    4.8990   -3.8221 H   0  0  0  0  0  0  0  0  0  0  0  0
    1.2329    4.0292   -2.2285 H   0  0  0  0  0  0  0  0  0  0  0  0
   -1.3972    4.2320   -2.0964 H   0  0  0  0  0  0  0  0  0  0  0  0
   -0.1828    2.8432   -4.5984 H   0  0  0  0  0  0  0  0  0  0  0  0
   -2.4980    2.2628   -5.0300 H   0  0  0  0  0  0  0  0  0  0  0  0
   -2.9781    2.9067   -3.4030 H   0  0  0  0  0  0  0  0  0  0  0  0
   -1.9045    4.4395   -5.7700 H   0  0  0  0  0  0  0  0  0  0  0  0
   -3.0239    7.0759   -5.2767 H   0  0  0  0  0  0  0  0  0  0  0  0
   -9.0436    6.0311   -4.4139 H   0  0  0  0  0  0  0  0  0  0  0  0
   -7.8706    7.0485   -5.2631 H   0  0  0  0  0  0  0  0  0  0  0  0
   -6.7509    1.8979   -3.8766 H   0  0  0  0  0  0  0  0  0  0  0  0
    1.2114   -1.9106   -3.7992 H   0  0  0  0  0  0  0  0  0  0  0  0
    0.2931   -1.9138   -2.2785 H   0  0  0  0  0  0  0  0  0  0  0  0
    0.1024   -4.0257   -3.4897 H   0  0  0  0  0  0  0  0  0  0  0  0
   -2.2494   -4.3113   -3.0112 H   0  0  0  0  0  0  0  0  0  0  0  0
   -2.7130   -1.4520   -3.9035 H   0  0  0  0  0  0  0  0  0  0  0  0
   -3.8250   -2.8983   -4.1087 H   0  0  0  0  0  0  0  0  0  0  0  0
   -2.1458   -2.0370   -6.1367 H   0  0  0  0  0  0  0  0  0  0  0  0
   -5.0771   -7.1188   -8.7977 H   0  0  0  0  0  0  0  0  0  0  0  0
   -5.5093   -7.6995   -7.0984 H   0  0  0  0  0  0  0  0  0  0  0  0
   -2.6149   -7.2529   -6.6573 H   0  0  0  0  0  0  0  0  0  0  0  0
   -1.2899   -5.3989   -5.6024 H   0  0  0  0  0  0  0  0  0  0  0  0
    0.2389   -3.6791   -0.6831 H   0  0  0  0  0  0  0  0  0  0  0  0
   -0.3381   -2.3434    0.4530 H   0  0  0  0  0  0  0  0  0  0  0  0
    0.2711   -3.8632    2.3866 H   0  0  0  0  0  0  0  0  0  0  0  0
    2.2614   -2.7827    2.1370 H   0  0  0  0  0  0  0  0  0  0  0  0
    3.2988   -2.9381   -0.1662 H   0  0  0  0  0  0  0  0  0  0  0  0
    3.4784   -4.6327    2.5182 H   0  0  0  0  0  0  0  0  0  0  0  0
    3.6912   -4.9763    0.8018 H   0  0  0  0  0  0  0  0  0  0  0  0
    1.7296   -6.0757    2.7636 H   0  0  0  0  0  0  0  0  0  0  0  0
    2.4537   -8.5229    2.7031 H   0  0  0  0  0  0  0  0  0  0  0  0
    3.1728   -4.7933   -3.4796 H   0  0  0  0  0  0  0  0  0  0  0  0
    2.0501   -5.8353   -4.3857 H   0  0  0  0  0  0  0  0  0  0  0  0
    2.1917   -5.3950   -1.0590 H   0  0  0  0  0  0  0  0  0  0  0  0
  1  2  1  0
  1121  1  0
  2  3  1  0
  2122  1  0
  2123  1  0
  3  4  1  0
  3  5  1  0
  3124  1  0
  4  8  1  0
  5  7  1  0
  5  6  1  0
  5125  1  0
  6 17  1  0
  7  8  1  0
  7126  1  0
  7127  1  0
  8  9  1  0
  8128  1  0
  9 16  1  0
  9 10  1  0
 10 12  1  0
 10 11  2  0
 12 13  2  0
 13 15  1  0
 13 14  1  0
 14129  1  0
 14130  1  0
 15 16  2  0
 15131  1  0
 16132  1  0
 17 20  1  0
 17 19  2  0
 17 18  1  0
 20 21  1  0
 21 22  1  0
 21133  1  0
 21134  1  0
 22 24  1  0
 22 23  1  0
 22135  1  0
 23 27  1  0
 24 25  1  0
 24 26  1  0
 24136  1  0
 25 39  1  0
 26 27  1  0
 26137  1  0
 26138  1  0
 27 28  1  0
 27139  1  0
 28 38  1  0
 28 29  1  0
 29 30  2  0
 29140  1  0
 30 31  1  0
 31 32  1  0
 31 38  2  0
 32 33  2  0
 32 34  1  0
 34 35  2  0
 35 36  1  0
 35 37  1  0
 36141  1  0
 36142  1  0
 37 38  1  0
 37143  1  0
 39 41  2  0
 39 42  1  0
 39 40  1  0
 42 43  1  0
 43 44  1  0
 43144  1  0
 43145  1  0
 44 46  1  0
 44 45  1  0
 44146  1  0
 45 49  1  0
 46 48  1  0
 46 47  1  0
 46147  1  0
 47 59  1  0
 48 49  1  0
 48148  1  0
 48149  1  0
 49 50  1  0
 49150  1  0
 50 51  1  0
 50 58  1  0
 51 53  1  0
 51 52  2  0
 53 54  1  0
 53151  1  0
 54 55  2  0
 54 56  1  0
 56 57  1  0
 56 58  2  0
 57152  1  0
 57153  1  0
 57154  1  0
 58155  1  0
 59 61  2  0
 59 62  1  0
 59 60  1  0
 62 63  1  0
 63 64  1  0
 63156  1  0
 63157  1  0
 64 66  1  0
 64 65  1  0
 64158  1  0
 65 69  1  0
 66 68  1  0
 66 67  1  0
 66159  1  0
 67 80  1  0
 68 69  1  0
 68160  1  0
 68161  1  0
 69 70  1  0
 69162  1  0
 70 79  1  0
 70 71  1  0
 71 72  2  0
 71163  1  0
 72 73  1  0
 73 79  2  0
 73 74  1  0
 74 76  2  0
 74 75  1  0
 75164  1  0
 75165  1  0
 76 77  1  0
 77 78  2  0
 77166  1  0
 78 79  1  0
 80 83  1  0
 80 82  2  0
 80 81  1  0
 83 84  1  0
 84 85  1  0
 84167  1  0
 84168  1  0
 85 87  1  0
 85 86  1  0
 85169  1  0
 86 90  1  0
 87 88  1  0
 87 89  1  0
 87170  1  0
 88 99  1  0
 89 90  1  0
 89171  1  0
 89172  1  0
 90 91  1  0
 90173  1  0
 91 98  1  0
 91 92  1  0
 92 93  2  0
 92 94  1  0
 94 95  2  0
 95 97  1  0
 95 96  1  0
 96174  1  0
 96175  1  0
 97 98  2  0
 97176  1  0
 98177  1  0
 99100  2  0
 99101  1  0
 99102  1  0
102103  1  0
103104  1  0
103178  1  0
103179  1  0
104105  1  0
104106  1  0
104180  1  0
105109  1  0
106108  1  0
106107  1  0
106181  1  0
107182  1  0
108109  1  0
108183  1  0
108184  1  0
109110  1  0
109185  1  0
110111  1  0
110120  1  0
111112  2  0
111186  1  0
112113  1  0
113114  1  0
113120  2  0
114115  2  0
114116  1  0
116117  2  0
117118  1  0
117119  1  0
118187  1  0
118188  1  0
119120  1  0
119189  1  0
M  CHG  5  18  -1  40  -1  60  -1  81  -1 101  -1
M  END
$$$$
DNA (5'-D(*CP*GP*TP*AP*CP*G)-3')
     RDKit          3D

189203  0  0  0  0  0  0  0  0999 V2000
   -4.0664    3.6231   -0.1693 O   0  0  0  0  0  0  0  0  0  0  0  0
   -2.6744    3.8601   -0.1809 C   0  0  0  0  0  0  0  0  0  0  0  0
   -2.0003    2.5708   -0.5689 C   0  0  0  0  0  0  0  0  0  0  0  0
   -2.3293    1.6107    0.3777 O   0  0  0  0  0  0  0  0  0  0  0  0
   -0.4920    2.6784   -0.6502 C   0  0  0  0  0  0  0  0  0  0  0  0
    0.0436    1.9692   -1.6752 O   0  0  0  0  0  0  0  0  0  0  0  0
   -0.1351    1.8566    0.6223 C   0  0  0  0  0  0  0  0  0  0  0  0
   -1.2217    0.8187    0.4665 C   0  0  0  0  0  0  0  0  0  0  0  0
   -1.2341   -0.2248    1.4210 N   0  0  0  0  0  0  0  0  0  0  0  0
   -2.2215   -0.4461    2.2899 C   0  0  0  0  0  0  0  0  0  0  0  0
   -3.2047    0.2948    2.2876 O   0  0  0  0  0  0  0  0  0  0  0  0
   -2.1746   -1.4626    3.1764 N   0  0  0  0  0  0  0  0  0  0  0  0
   -1.1478   -2.2963    3.2324 C   0  0  0  0  0  0  0  0  0  0  0  0
   -1.0395   -3.3852    4.1402 N   0  0  0  0  0  0  0  0  0  0  0  0
   -0.0867   -2.1167    2.3505 C   0  0  0  0  0  0  0  0  0  0  0  0
   -0.1750   -1.0669    1.4632 C   0  0  0  0  0  0  0  0  0  0  0  0
    1.1630    2.6676   -2.6664 P   0  0  0  0  0  0  0  0  0  0  0  0
    0.7686    4.1511   -3.3000 O   0  0  0  0  0  0  0  0  0  0  0  0
    2.4513    2.8107   -1.8892 O   0  0  0  0  0  0  0  0  0  0  0  0
    1.5148    1.5057   -3.9061 O   0  0  0  0  0  0  0  0  0  0  0  0
    1.4966    0.2714   -3.2610 C   0  0  0  0  0  0  0  0  0  0  0  0
    0.7130   -0.7625   -4.0078 C   0  0  0  0  0  0  0  0  0  0  0  0
   -0.5994   -0.3733   -4.2219 O   0  0  0  0  0  0  0  0  0  0  0  0
    1.3583   -1.1077   -5.3023 C   0  0  0  0  0  0  0  0  0  0  0  0
    1.6276   -2.4778   -5.3975 O   0  0  0  0  0  0  0  0  0  0  0  0
    0.3127   -0.7338   -6.2974 C   0  0  0  0  0  0  0  0  0  0  0  0
   -0.9470   -0.7691   -5.5055 C   0  0  0  0  0  0  0  0  0  0  0  0
   -1.6339   -2.0458   -5.5040 N   0  0  0  0  0  0  0  0  0  0  0  0
   -1.6588   -3.0165   -6.4323 C   0  0  0  0  0  0  0  0  0  0  0  0
   -2.4411   -4.0497   -6.0049 N   0  0  0  0  0  0  0  0  0  0  0  0
   -2.9041   -3.7045   -4.7913 C   0  0  0  0  0  0  0  0  0  0  0  0
   -3.7231   -4.3109   -3.8664 C   0  0  0  0  0  0  0  0  0  0  0  0
   -4.2028   -5.4507   -4.1125 O   0  0  0  0  0  0  0  0  0  0  0  0
   -4.0586   -3.7610   -2.6871 N   0  0  0  0  0  0  0  0  0  0  0  0
   -3.5659   -2.5504   -2.3974 C   0  0  0  0  0  0  0  0  0  0  0  0
   -3.8904   -1.9165   -1.1564 N   0  0  0  0  0  0  0  0  0  0  0  0
   -2.7477   -1.8979   -3.2742 N   0  0  0  0  0  0  0  0  0  0  0  0
   -2.4022   -2.4395   -4.4617 C   0  0  0  0  0  0  0  0  0  0  0  0
    3.2799   -2.8032   -5.4736 P   0  0  0  0  0  0  0  0  0  0  0  0
    3.6015   -3.9514   -6.6802 O   0  0  0  0  0  0  0  0  0  0  0  0
    4.1278   -1.6015   -5.7335 O   0  0  0  0  0  0  0  0  0  0  0  0
    3.7398   -3.4136   -3.9457 O   0  0  0  0  0  0  0  0  0  0  0  0
    5.0309   -3.0828   -3.6338 C   0  0  0  0  0  0  0  0  0  0  0  0
    5.4894   -3.6568   -2.3121 C   0  0  0  0  0  0  0  0  0  0  0  0
    5.4262   -5.0401   -2.2949 O   0  0  0  0  0  0  0  0  0  0  0  0
    4.7102   -3.1549   -1.1280 C   0  0  0  0  0  0  0  0  0  0  0  0
    5.3897   -3.2579    0.0560 O   0  0  0  0  0  0  0  0  0  0  0  0
    3.6070   -4.2347   -1.0560 C   0  0  0  0  0  0  0  0  0  0  0  0
    4.3454   -5.4561   -1.5634 C   0  0  0  0  0  0  0  0  0  0  0  0
    3.4910   -6.3800   -2.2747 N   0  0  0  0  0  0  0  0  0  0  0  0
    2.4821   -6.9471   -1.5875 C   0  0  0  0  0  0  0  0  0  0  0  0
    2.3084   -6.6655   -0.3590 O   0  0  0  0  0  0  0  0  0  0  0  0
    1.6213   -7.8185   -2.1359 N   0  0  0  0  0  0  0  0  0  0  0  0
    1.7861   -8.1335   -3.4408 C   0  0  0  0  0  0  0  0  0  0  0  0
    0.9873   -8.9543   -3.9843 O   0  0  0  0  0  0  0  0  0  0  0  0
    2.8169   -7.5718   -4.1940 C   0  0  0  0  0  0  0  0  0  0  0  0
    3.0199   -7.9011   -5.6279 C   0  0  0  0  0  0  0  0  0  0  0  0
    3.6698   -6.6812   -3.5707 C   0  0  0  0  0  0  0  0  0  0  0  0
    5.2289   -2.0012    1.1250 P   0  0  0  0  0  0  0  0  0  0  0  0
    6.2622   -2.2273    2.4615 O   0  0  0  0  0  0  0  0  0  0  0  0
    3.8155   -2.0899    1.7124 O   0  0  0  0  0  0  0  0  0  0  0  0
    5.3711   -0.4735    0.4679 O   0  0  0  0  0  0  0  0  0  0  0  0
    4.7966    0.5062    1.3092 C   0  0  0  0  0  0  0  0  0  0  0  0
    5.0117    1.8354    0.6531 C   0  0  0  0  0  0  0  0  0  0  0  0
    6.3626    2.1493    0.4585 O   0  0  0  0  0  0  0  0  0  0  0  0
    4.6308    2.9954    1.5600 C   0  0  0  0  0  0  0  0  0  0  0  0
    3.2859    3.0773    1.8227 O   0  0  0  0  0  0  0  0  0  0  0  0
    5.1308    4.1369    0.6590 C   0  0  0  0  0  0  0  0  0  0  0  0
    6.2896    3.4591   -0.0378 C   0  0  0  0  0  0  0  0  0  0  0  0
    6.1035    3.4356   -1.4835 N   0  0  0  0  0  0  0  0  0  0  0  0
    6.1803    2.3405   -2.2588 C   0  0  0  0  0  0  0  0  0  0  0  0
    5.9538    2.7233   -3.5184 N   0  0  0  0  0  0  0  0  0  0  0  0
    5.7390    4.0318   -3.5321 C   0  0  0  0  0  0  0  0  0  0  0  0
    5.4574    4.9549   -4.5326 C   0  0  0  0  0  0  0  0  0  0  0  0
    5.3681    4.4357   -5.8597 N   0  0  0  0  0  0  0  0  0  0  0  0
    5.2838    6.2450   -4.2494 N   0  0  0  0  0  0  0  0  0  0  0  0
    5.3792    6.6786   -2.9798 C   0  0  0  0  0  0  0  0  0  0  0  0
    5.6528    5.8248   -1.9551 N   0  0  0  0  0  0  0  0  0  0  0  0
    5.8291    4.5161   -2.2396 C   0  0  0  0  0  0  0  0  0  0  0  0
    2.9264    3.2554    3.4433 P   0  0  0  0  0  0  0  0  0  0  0  0
    2.8982    4.9195    3.7725 O   0  0  0  0  0  0  0  0  0  0  0  0
    3.9155    2.5779    4.3574 O   0  0  0  0  0  0  0  0  0  0  0  0
    1.3968    2.6367    3.8046 O   0  0  0  0  0  0  0  0  0  0  0  0
    1.4649    1.6026    4.7355 C   0  0  0  0  0  0  0  0  0  0  0  0
    0.0856    1.0860    5.1252 C   0  0  0  0  0  0  0  0  0  0  0  0
    0.1585    0.0689    6.0482 O   0  0  0  0  0  0  0  0  0  0  0  0
   -0.7690    2.2015    5.6899 C   0  0  0  0  0  0  0  0  0  0  0  0
   -2.0166    2.1340    5.0871 O   0  0  0  0  0  0  0  0  0  0  0  0
   -0.8774    1.7243    7.1533 C   0  0  0  0  0  0  0  0  0  0  0  0
   -0.9257    0.2159    6.8700 C   0  0  0  0  0  0  0  0  0  0  0  0
   -0.8997   -0.5394    8.0832 N   0  0  0  0  0  0  0  0  0  0  0  0
    0.2363   -0.8117    8.7467 C   0  0  0  0  0  0  0  0  0  0  0  0
    1.3102   -0.3722    8.2598 O   0  0  0  0  0  0  0  0  0  0  0  0
    0.2120   -1.5316    9.8907 N   0  0  0  0  0  0  0  0  0  0  0  0
   -0.9312   -2.0062   10.4179 C   0  0  0  0  0  0  0  0  0  0  0  0
   -0.9643   -2.7706   11.6276 N   0  0  0  0  0  0  0  0  0  0  0  0
   -2.1101   -1.7382    9.7526 C   0  0  0  0  0  0  0  0  0  0  0  0
   -2.0739   -1.0033    8.5868 C   0  0  0  0  0  0  0  0  0  0  0  0
   -2.5755    3.5775    4.4662 P   0  0  0  0  0  0  0  0  0  0  0  0
   -1.4376    4.3570    3.8839 O   0  0  0  0  0  0  0  0  0  0  0  0
   -3.3952    4.4953    5.6570 O   0  0  0  0  0  0  0  0  0  0  0  0
   -3.7161    3.3326    3.2284 O   0  0  0  0  0  0  0  0  0  0  0  0
   -4.8688    2.7283    3.6926 C   0  0  0  0  0  0  0  0  0  0  0  0
   -5.8730    2.4507    2.6233 C   0  0  0  0  0  0  0  0  0  0  0  0
   -6.3289    3.5768    1.9512 O   0  0  0  0  0  0  0  0  0  0  0  0
   -7.0906    1.8171    3.2631 C   0  0  0  0  0  0  0  0  0  0  0  0
   -7.3362    2.4055    4.4983 O   0  0  0  0  0  0  0  0  0  0  0  0
   -8.1642    2.1793    2.2738 C   0  0  0  0  0  0  0  0  0  0  0  0
   -7.5773    3.2584    1.4342 C   0  0  0  0  0  0  0  0  0  0  0  0
   -7.5298    2.9525    0.0282 N   0  0  0  0  0  0  0  0  0  0  0  0
   -7.5442    1.7428   -0.5931 C   0  0  0  0  0  0  0  0  0  0  0  0
   -7.4849    1.9027   -1.9127 N   0  0  0  0  0  0  0  0  0  0  0  0
   -7.4319    3.2186   -2.1767 C   0  0  0  0  0  0  0  0  0  0  0  0
   -7.3622    3.8819   -3.3636 C   0  0  0  0  0  0  0  0  0  0  0  0
   -7.3384    3.2607   -4.4703 O   0  0  0  0  0  0  0  0  0  0  0  0
   -7.3185    5.2341   -3.3499 N   0  0  0  0  0  0  0  0  0  0  0  0
   -7.3444    5.9031   -2.1668 C   0  0  0  0  0  0  0  0  0  0  0  0
   -7.2982    7.3455   -2.1896 N   0  0  0  0  0  0  0  0  0  0  0  0
   -7.4135    5.2213   -1.0092 N   0  0  0  0  0  0  0  0  0  0  0  0
   -7.4591    3.8920   -0.9614 C   0  0  0  0  0  0  0  0  0  0  0  0
   -4.3279    3.0829   -0.9678 H   0  0  0  0  0  0  0  0  0  0  0  0
   -2.4521    4.1431    0.8808 H   0  0  0  0  0  0  0  0  0  0  0  0
   -2.3926    4.7288   -0.7977 H   0  0  0  0  0  0  0  0  0  0  0  0
   -2.4368    2.2010   -1.5259 H   0  0  0  0  0  0  0  0  0  0  0  0
   -0.1735    3.7194   -0.5428 H   0  0  0  0  0  0  0  0  0  0  0  0
    0.8292    1.3564    0.5021 H   0  0  0  0  0  0  0  0  0  0  0  0
   -0.2505    2.5229    1.4718 H   0  0  0  0  0  0  0  0  0  0  0  0
   -1.0641    0.3595   -0.5339 H   0  0  0  0  0  0  0  0  0  0  0  0
   -1.8304   -4.0259    4.3826 H   0  0  0  0  0  0  0  0  0  0  0  0
   -0.1119   -3.5527    4.5939 H   0  0  0  0  0  0  0  0  0  0  0  0
    0.7832   -2.7893    2.3684 H   0  0  0  0  0  0  0  0  0  0  0  0
    0.6704   -0.9413    0.7781 H   0  0  0  0  0  0  0  0  0  0  0  0
    1.0721    0.3860   -2.2658 H   0  0  0  0  0  0  0  0  0  0  0  0
    2.5892   -0.0185   -3.1924 H   0  0  0  0  0  0  0  0  0  0  0  0
    0.6322   -1.7212   -3.4108 H   0  0  0  0  0  0  0  0  0  0  0  0
    2.3116   -0.5746   -5.4502 H   0  0  0  0  0  0  0  0  0  0  0  0
    0.3045   -1.3301   -7.2137 H   0  0  0  0  0  0  0  0  0  0  0  0
    0.4941    0.3466   -6.5642 H   0  0  0  0  0  0  0  0  0  0  0  0
   -1.6380    0.0135   -5.8851 H   0  0  0  0  0  0  0  0  0  0  0  0
   -1.1278   -2.9600   -7.3728 H   0  0  0  0  0  0  0  0  0  0  0  0
   -4.8371   -1.9584   -0.7224 H   0  0  0  0  0  0  0  0  0  0  0  0
   -3.1621   -1.3629   -0.6150 H   0  0  0  0  0  0  0  0  0  0  0  0
   -2.4187   -0.9768   -2.9775 H   0  0  0  0  0  0  0  0  0  0  0  0
    5.1557   -1.9883   -3.6475 H   0  0  0  0  0  0  0  0  0  0  0  0
    5.7399   -3.4762   -4.3952 H   0  0  0  0  0  0  0  0  0  0  0  0
    6.5472   -3.3652   -2.1741 H   0  0  0  0  0  0  0  0  0  0  0  0
    4.2074   -2.2066   -1.2867 H   0  0  0  0  0  0  0  0  0  0  0  0
    2.7228   -3.9642   -1.6314 H   0  0  0  0  0  0  0  0  0  0  0  0
    3.3055   -4.4366   -0.0132 H   0  0  0  0  0  0  0  0  0  0  0  0
    4.7567   -6.0525   -0.6971 H   0  0  0  0  0  0  0  0  0  0  0  0
    0.8306   -8.2665   -1.6104 H   0  0  0  0  0  0  0  0  0  0  0  0
    3.2336   -6.9557   -6.2124 H   0  0  0  0  0  0  0  0  0  0  0  0
    3.8480   -8.5952   -5.7936 H   0  0  0  0  0  0  0  0  0  0  0  0
    2.0699   -8.2872   -6.0504 H   0  0  0  0  0  0  0  0  0  0  0  0
    4.4851   -6.2072   -4.0755 H   0  0  0  0  0  0  0  0  0  0  0  0
    3.7151    0.3136    1.3472 H   0  0  0  0  0  0  0  0  0  0  0  0
    5.2576    0.4576    2.3074 H   0  0  0  0  0  0  0  0  0  0  0  0
    4.4967    1.9482   -0.3017 H   0  0  0  0  0  0  0  0  0  0  0  0
    5.2494    3.0394    2.4809 H   0  0  0  0  0  0  0  0  0  0  0  0
    5.4190    5.0246    1.2320 H   0  0  0  0  0  0  0  0  0  0  0  0
    4.3501    4.3152   -0.0984 H   0  0  0  0  0  0  0  0  0  0  0  0
    7.1979    4.0246    0.2552 H   0  0  0  0  0  0  0  0  0  0  0  0
    6.3906    1.3313   -1.8969 H   0  0  0  0  0  0  0  0  0  0  0  0
    4.4212    4.3043   -6.2593 H   0  0  0  0  0  0  0  0  0  0  0  0
    6.2059    4.1894   -6.4285 H   0  0  0  0  0  0  0  0  0  0  0  0
    5.2338    7.7475   -2.7591 H   0  0  0  0  0  0  0  0  0  0  0  0
    1.9954    1.9123    5.6372 H   0  0  0  0  0  0  0  0  0  0  0  0
    2.0404    0.7931    4.2572 H   0  0  0  0  0  0  0  0  0  0  0  0
   -0.3525    0.6860    4.1956 H   0  0  0  0  0  0  0  0  0  0  0  0
   -0.3196    3.1908    5.6506 H   0  0  0  0  0  0  0  0  0  0  0  0
    0.0363    1.9566    7.7129 H   0  0  0  0  0  0  0  0  0  0  0  0
   -1.7652    2.0972    7.6558 H   0  0  0  0  0  0  0  0  0  0  0  0
   -1.8644    0.0566    6.2910 H   0  0  0  0  0  0  0  0  0  0  0  0
   -1.5543   -2.4427   12.4375 H   0  0  0  0  0  0  0  0  0  0  0  0
   -0.4240   -3.6500   11.7436 H   0  0  0  0  0  0  0  0  0  0  0  0
   -3.0224   -2.1272   10.1895 H   0  0  0  0  0  0  0  0  0  0  0  0
   -3.0268   -0.8062    8.0828 H   0  0  0  0  0  0  0  0  0  0  0  0
   -5.3392    3.3527    4.4970 H   0  0  0  0  0  0  0  0  0  0  0  0
   -4.5881    1.7562    4.1427 H   0  0  0  0  0  0  0  0  0  0  0  0
   -5.4781    1.7269    1.8819 H   0  0  0  0  0  0  0  0  0  0  0  0
   -6.9424    0.7208    3.3446 H   0  0  0  0  0  0  0  0  0  0  0  0
   -8.0004    3.1310    4.3525 H   0  0  0  0  0  0  0  0  0  0  0  0
   -9.0739    2.4919    2.8503 H   0  0  0  0  0  0  0  0  0  0  0  0
   -8.4357    1.2601    1.7308 H   0  0  0  0  0  0  0  0  0  0  0  0
   -8.1941    4.1722    1.5566 H   0  0  0  0  0  0  0  0  0  0  0  0
   -7.5959    0.7988   -0.0745 H   0  0  0  0  0  0  0  0  0  0  0  0
   -6.9298    7.8741   -1.3709 H   0  0  0  0  0  0  0  0  0  0  0  0
   -7.6458    7.8534   -3.0486 H   0  0  0  0  0  0  0  0  0  0  0  0
   -7.4336    5.7427   -0.1030 H   0  0  0  0  0  0  0  0  0  0  0  0
  1  2  1  0
  1121  1  0
  2  3  1  0
  2122  1  0
  2123  1  0
  3  4  1  0
  3  5  1  0
  3124  1  0
  4  8  1  0
  5  7  1  0
  5  6  1  0
  5125  1  0
  6 17  1  0
  7  8  1  0
  7126  1  0
  7127  1  0
  8  9  1  0
  8128  1  0
  9 16  1  0
  9 10  1  0
 10 12  1  0
 10 11  2  0
 12 13  2  0
 13 15  1  0
 13 14  1  0
 14129  1  0
 14130  1  0
 15 16  2  0
 15131  1  0
 16132  1  0
 17 20  1  0
 17 19  2  0
 17 18  1  0
 20 21  1  0
 21 22  1  0
 21133  1  0
 21134  1  0
 22 24  1  0
 22 23  1  0
 22135  1  0
 23 27  1  0
 24 25  1  0
 24 26  1  0
 24136  1  0
 25 39  1  0
 26 27  1  0
 26137  1  0
 26138  1  0
 27 28  1  0
 27139  1  0
 28 38  1  0
 28 29  1  0
 29 30  2  0
 29140  1  0
 30 31  1  0
 31 32  1  0
 31 38  2  0
 32 33  2  0
 32 34  1  0
 34 35  2  0
 35 36  1  0
 35 37  1  0
 36141  1  0
 36142  1  0
 37 38  1  0
 37143  1  0
 39 41  2  0
 39 42  1  0
 39 40  1  0
 42 43  1  0
 43 44  1  0
 43144  1  0
 43145  1  0
 44 46  1  0
 44 45  1  0
 44146  1  0
 45 49  1  0
 46 48  1  0
 46 47  1  0
 46147  1  0
 47 59  1  0
 48 49  1  0
 48148  1  0
 48149  1  0
 49 50  1  0
 49150  1  0
 50 51  1  0
 50 58  1  0
 51 53  1  0
 51 52  2  0
 53 54  1  0
 53151  1  0
 54 55  2  0
 54 56  1  0
 56 57  1  0
 56 58  2  0
 57152  1  0
 57153  1  0
 57154  1  0
 58155  1  0
 59 61  2  0
 59 62  1  0
 59 60  1  0
 62 63  1  0
 63 64  1  0
 63156  1  0
 63157  1  0
 64 66  1  0
 64 65  1  0
 64158  1  0
 65 69  1  0
 66 68  1  0
 66 67  1  0
 66159  1  0
 67 80  1  0
 68 69  1  0
 68160  1  0
 68161  1  0
 69 70  1  0
 69162  1  0
 70 79  1  0
 70 71  1  0
 71 72  2  0
 71163  1  0
 72 73  1  0
 73 79  2  0
 73 74  1  0
 74 76  2  0
 74 75  1  0
 75164  1  0
 75165  1  0
 76 77  1  0
 77 78  2  0
 77166  1  0
 78 79  1  0
 80 83  1  0
 80 82  2  0
 80 81  1  0
 83 84  1  0
 84 85  1  0
 84167  1  0
 84168  1  0
 85 87  1  0
 85 86  1  0
 85169  1  0
 86 90  1  0
 87 88  1  0
 87 89  1  0
 87170  1  0
 88 99  1  0
 89 90  1  0
 89171  1  0
 89172  1  0
 90 91  1  0
 90173  1  0
 91 98  1  0
 91 92  1  0
 92 93  2  0
 92 94  1  0
 94 95  2  0
 95 97  1  0
 95 96  1  0
 96174  1  0
 96175  1  0
 97 98  2  0
 97176  1  0
 98177  1  0
 99100  2  0
 99101  1  0
 99102  1  0
102103  1  0
103104  1  0
103178  1  0
103179  1  0
104105  1  0
104106  1  0
104180  1  0
105109  1  0
106108  1  0
106107  1  0
106181  1  0
107182  1  0
108109  1  0
108183  1  0
108184  1  0
109110  1  0
109185  1  0
110111  1  0
110120  1  0
111112  2  0
111186  1  0
112113  1  0
113114  1  0
113120  2  0
114115  2  0
114116  1  0
116117  2  0
117118  1  0
117119  1  0
118187  1  0
118188  1  0
119120  1  0
119189  1  0
M  CHG  5  18  -1  40  -1  60  -1  81  -1 101  -1
M  END
$$$$
DNA (5'-D(*CP*GP*TP*AP*CP*G)-3')
     RDKit          3D

189203  0  0  0  0  0  0  0  0999 V2000
   -5.9239    2.7422   -5.9640 O   0  0  0  0  0  0  0  0  0  0  0  0
   -6.0163    1.3550   -6.0608 C   0  0  0  0  0  0  0  0  0  0  0  0
   -5.0036    0.7646   -5.0977 C   0  0  0  0  0  0  0  0  0  0  0  0
   -4.9957   -0.6184   -5.0989 O   0  0  0  0  0  0  0  0  0  0  0  0
   -3.6328    1.2372   -5.5255 C   0  0  0  0  0  0  0  0  0  0  0  0
   -2.8779    1.4613   -4.3895 O   0  0  0  0  0  0  0  0  0  0  0  0
   -3.1172    0.0199   -6.2986 C   0  0  0  0  0  0  0  0  0  0  0  0
   -4.1958   -1.0080   -6.1727 C   0  0  0  0  0  0  0  0  0  0  0  0
   -3.7072   -2.3628   -6.0265 N   0  0  0  0  0  0  0  0  0  0  0  0
   -2.6194   -2.7745   -6.6945 C   0  0  0  0  0  0  0  0  0  0  0  0
   -1.9621   -2.0168   -7.4792 O   0  0  0  0  0  0  0  0  0  0  0  0
   -2.1484   -4.0292   -6.5779 N   0  0  0  0  0  0  0  0  0  0  0  0
   -2.7492   -4.9268   -5.7842 C   0  0  0  0  0  0  0  0  0  0  0  0
   -2.2994   -6.2587   -5.6259 N   0  0  0  0  0  0  0  0  0  0  0  0
   -3.8891   -4.5468   -5.0648 C   0  0  0  0  0  0  0  0  0  0  0  0
   -4.3142   -3.2462   -5.2340 C   0  0  0  0  0  0  0  0  0  0  0  0
   -2.1844    2.9932   -4.3195 P   0  0  0  0  0  0  0  0  0  0  0  0
   -3.4305    4.1279   -4.2809 O   0  0  0  0  0  0  0  0  0  0  0  0
   -1.3342    3.2322   -5.5528 O   0  0  0  0  0  0  0  0  0  0  0  0
   -1.1850    3.0972   -2.9850 O   0  0  0  0  0  0  0  0  0  0  0  0
   -1.0437    4.3617   -2.4699 C   0  0  0  0  0  0  0  0  0  0  0  0
   -0.2436    4.3223   -1.1894 C   0  0  0  0  0  0  0  0  0  0  0  0
   -0.1061    5.5656   -0.6587 O   0  0  0  0  0  0  0  0  0  0  0  0
    1.1686    3.8814   -1.5227 C   0  0  0  0  0  0  0  0  0  0  0  0
    1.8842    3.5875   -0.3721 O   0  0  0  0  0  0  0  0  0  0  0  0
    1.7494    5.2333   -1.9938 C   0  0  0  0  0  0  0  0  0  0  0  0
    1.1328    6.1025   -0.8967 C   0  0  0  0  0  0  0  0  0  0  0  0
    2.0073    5.9707    0.2709 N   0  0  0  0  0  0  0  0  0  0  0  0
    3.3351    5.8084    0.3252 C   0  0  0  0  0  0  0  0  0  0  0  0
    3.7565    5.7177    1.5999 N   0  0  0  0  0  0  0  0  0  0  0  0
    2.6461    5.8296    2.3396 C   0  0  0  0  0  0  0  0  0  0  0  0
    2.4606    5.8089    3.7245 C   0  0  0  0  0  0  0  0  0  0  0  0
    3.5025    5.6610    4.4234 O   0  0  0  0  0  0  0  0  0  0  0  0
    1.2382    5.9431    4.2023 N   0  0  0  0  0  0  0  0  0  0  0  0
    0.1258    6.1018    3.4618 C   0  0  0  0  0  0  0  0  0  0  0  0
   -1.1722    6.2501    4.0210 N   0  0  0  0  0  0  0  0  0  0  0  0
    0.3237    6.1195    2.1128 N   0  0  0  0  0  0  0  0  0  0  0  0
    1.5284    5.9898    1.5500 C   0  0  0  0  0  0  0  0  0  0  0  0
    2.7536    2.1702   -0.4027 P   0  0  0  0  0  0  0  0  0  0  0  0
    4.2201    2.5048   -1.2249 O   0  0  0  0  0  0  0  0  0  0  0  0
    2.1048    1.0299   -1.1041 O   0  0  0  0  0  0  0  0  0  0  0  0
    3.2159    1.8114    1.1950 O   0  0  0  0  0  0  0  0  0  0  0  0
    4.5254    1.3972    1.2701 C   0  0  0  0  0  0  0  0  0  0  0  0
    5.1166    1.3985    2.6505 C   0  0  0  0  0  0  0  0  0  0  0  0
    6.4174    0.9586    2.5630 O   0  0  0  0  0  0  0  0  0  0  0  0
    4.4360    0.4494    3.6088 C   0  0  0  0  0  0  0  0  0  0  0  0
    4.5455    0.8949    4.9260 O   0  0  0  0  0  0  0  0  0  0  0  0
    5.2016   -0.8156    3.3657 C   0  0  0  0  0  0  0  0  0  0  0  0
    6.4486   -0.3946    2.6661 C   0  0  0  0  0  0  0  0  0  0  0  0
    7.6271   -0.8559    3.3911 N   0  0  0  0  0  0  0  0  0  0  0  0
    7.8917   -2.1611    3.5936 C   0  0  0  0  0  0  0  0  0  0  0  0
    7.0999   -3.0415    3.1512 O   0  0  0  0  0  0  0  0  0  0  0  0
    9.0145   -2.4881    4.2744 N   0  0  0  0  0  0  0  0  0  0  0  0
    9.8711   -1.5557    4.7531 C   0  0  0  0  0  0  0  0  0  0  0  0
   10.8964   -1.9324    5.3771 O   0  0  0  0  0  0  0  0  0  0  0  0
    9.5735   -0.2331    4.5300 C   0  0  0  0  0  0  0  0  0  0  0  0
   10.4759    0.8414    5.0346 C   0  0  0  0  0  0  0  0  0  0  0  0
    8.4557    0.1207    3.8515 C   0  0  0  0  0  0  0  0  0  0  0  0
    3.0288    1.1616    5.5768 P   0  0  0  0  0  0  0  0  0  0  0  0
    2.8253    0.4249    7.0861 O   0  0  0  0  0  0  0  0  0  0  0  0
    2.9036    2.6525    5.8129 O   0  0  0  0  0  0  0  0  0  0  0  0
    1.7703    0.6993    4.5522 O   0  0  0  0  0  0  0  0  0  0  0  0
    0.5507    0.6536    5.2332 C   0  0  0  0  0  0  0  0  0  0  0  0
   -0.4612    0.0852    4.2694 C   0  0  0  0  0  0  0  0  0  0  0  0
   -0.0372   -1.1687    3.8981 O   0  0  0  0  0  0  0  0  0  0  0  0
   -1.8164   -0.1075    4.9523 C   0  0  0  0  0  0  0  0  0  0  0  0
   -2.7568   -0.4998    4.0394 O   0  0  0  0  0  0  0  0  0  0  0  0
   -1.4692   -1.3872    5.7337 C   0  0  0  0  0  0  0  0  0  0  0  0
   -0.7040   -2.1155    4.6530 C   0  0  0  0  0  0  0  0  0  0  0  0
    0.2686   -3.0493    5.1382 N   0  0  0  0  0  0  0  0  0  0  0  0
    0.3951   -3.6440    6.3461 C   0  0  0  0  0  0  0  0  0  0  0  0
    1.4689   -4.4588    6.3602 N   0  0  0  0  0  0  0  0  0  0  0  0
    2.0519   -4.3914    5.1360 C   0  0  0  0  0  0  0  0  0  0  0  0
    3.1668   -4.9981    4.5778 C   0  0  0  0  0  0  0  0  0  0  0  0
    3.9658   -5.9098    5.3220 N   0  0  0  0  0  0  0  0  0  0  0  0
    3.5105   -4.7192    3.2833 N   0  0  0  0  0  0  0  0  0  0  0  0
    2.7513   -3.8605    2.5888 C   0  0  0  0  0  0  0  0  0  0  0  0
    1.6556   -3.2538    3.1117 N   0  0  0  0  0  0  0  0  0  0  0  0
    1.2912   -3.5139    4.4002 C   0  0  0  0  0  0  0  0  0  0  0  0
   -4.1723    0.3623    3.9934 P   0  0  0  0  0  0  0  0  0  0  0  0
   -4.0091    2.0006    4.3537 O   0  0  0  0  0  0  0  0  0  0  0  0
   -5.1201   -0.2208    5.0405 O   0  0  0  0  0  0  0  0  0  0  0  0
   -4.9699    0.1106    2.5029 O   0  0  0  0  0  0  0  0  0  0  0  0
   -5.5959    1.2591    2.0454 C   0  0  0  0  0  0  0  0  0  0  0  0
   -6.0864    1.1094    0.6213 C   0  0  0  0  0  0  0  0  0  0  0  0
   -6.6873    2.2835    0.2417 O   0  0  0  0  0  0  0  0  0  0  0  0
   -4.9502    0.8160   -0.3334 C   0  0  0  0  0  0  0  0  0  0  0  0
   -3.7752    0.5170    0.3058 O   0  0  0  0  0  0  0  0  0  0  0  0
   -4.8541    2.1340   -1.0702 C   0  0  0  0  0  0  0  0  0  0  0  0
   -6.3178    2.5291   -1.0777 C   0  0  0  0  0  0  0  0  0  0  0  0
   -6.5362    3.8742   -1.4858 N   0  0  0  0  0  0  0  0  0  0  0  0
   -7.4009    4.1587   -2.4738 C   0  0  0  0  0  0  0  0  0  0  0  0
   -8.0550    3.2393   -3.0656 O   0  0  0  0  0  0  0  0  0  0  0  0
   -7.6393    5.4153   -2.9062 N   0  0  0  0  0  0  0  0  0  0  0  0
   -7.0015    6.4794   -2.3501 C   0  0  0  0  0  0  0  0  0  0  0  0
   -7.2625    7.7808   -2.8163 N   0  0  0  0  0  0  0  0  0  0  0  0
   -6.1121    6.1860   -1.3350 C   0  0  0  0  0  0  0  0  0  0  0  0
   -5.8696    4.8977   -0.8938 C   0  0  0  0  0  0  0  0  0  0  0  0
   -3.1243   -0.9739   -0.0715 P   0  0  0  0  0  0  0  0  0  0  0  0
   -2.1003   -1.2951    0.9833 O   0  0  0  0  0  0  0  0  0  0  0  0
   -4.3119   -2.1724   -0.1845 O   0  0  0  0  0  0  0  0  0  0  0  0
   -2.3007   -0.9930   -1.5574 O   0  0  0  0  0  0  0  0  0  0  0  0
   -1.5482   -2.1566   -1.6494 C   0  0  0  0  0  0  0  0  0  0  0  0
   -0.8289   -2.3160   -2.9709 C   0  0  0  0  0  0  0  0  0  0  0  0
   -0.1172   -3.4955   -2.9571 O   0  0  0  0  0  0  0  0  0  0  0  0
    0.2242   -1.2532   -3.1680 C   0  0  0  0  0  0  0  0  0  0  0  0
   -0.2701   -0.0516   -3.6204 O   0  0  0  0  0  0  0  0  0  0  0  0
    1.0945   -1.9309   -4.2144 C   0  0  0  0  0  0  0  0  0  0  0  0
    1.0196   -3.3570   -3.7039 C   0  0  0  0  0  0  0  0  0  0  0  0
    2.2192   -3.7123   -2.9686 N   0  0  0  0  0  0  0  0  0  0  0  0
    2.3289   -3.5661   -1.6323 C   0  0  0  0  0  0  0  0  0  0  0  0
    3.5616   -3.9757   -1.2191 N   0  0  0  0  0  0  0  0  0  0  0  0
    4.2386   -4.3889   -2.3249 C   0  0  0  0  0  0  0  0  0  0  0  0
    5.4944   -4.9015   -2.5657 C   0  0  0  0  0  0  0  0  0  0  0  0
    6.2753   -5.0572   -1.5695 O   0  0  0  0  0  0  0  0  0  0  0  0
    5.8525   -5.2161   -3.8218 N   0  0  0  0  0  0  0  0  0  0  0  0
    5.0349   -5.0543   -4.8787 C   0  0  0  0  0  0  0  0  0  0  0  0
    5.4159   -5.3838   -6.2149 N   0  0  0  0  0  0  0  0  0  0  0  0
    3.8155   -4.5523   -4.6130 N   0  0  0  0  0  0  0  0  0  0  0  0
    3.3845   -4.2152   -3.3941 C   0  0  0  0  0  0  0  0  0  0  0  0
   -6.7432    3.1345   -5.5680 H   0  0  0  0  0  0  0  0  0  0  0  0
   -5.7368    1.0640   -7.0857 H   0  0  0  0  0  0  0  0  0  0  0  0
   -7.0353    0.9991   -5.8408 H   0  0  0  0  0  0  0  0  0  0  0  0
   -5.1970    1.0787   -4.0562 H   0  0  0  0  0  0  0  0  0  0  0  0
   -3.6528    2.1215   -6.1831 H   0  0  0  0  0  0  0  0  0  0  0  0
   -3.0236    0.3010   -7.3612 H   0  0  0  0  0  0  0  0  0  0  0  0
   -2.1380   -0.3062   -5.9088 H   0  0  0  0  0  0  0  0  0  0  0  0
   -4.8907   -1.0372   -7.0613 H   0  0  0  0  0  0  0  0  0  0  0  0
   -1.2742   -6.4896   -5.5767 H   0  0  0  0  0  0  0  0  0  0  0  0
   -2.9382   -7.0868   -5.5488 H   0  0  0  0  0  0  0  0  0  0  0  0
   -4.4105   -5.2238   -4.4147 H   0  0  0  0  0  0  0  0  0  0  0  0
   -5.1840   -2.9325   -4.6921 H   0  0  0  0  0  0  0  0  0  0  0  0
   -2.0614    4.8099   -2.2710 H   0  0  0  0  0  0  0  0  0  0  0  0
   -0.5928    5.0065   -3.2431 H   0  0  0  0  0  0  0  0  0  0  0  0
   -0.7095    3.6318   -0.4446 H   0  0  0  0  0  0  0  0  0  0  0  0
    1.2376    3.1463   -2.3234 H   0  0  0  0  0  0  0  0  0  0  0  0
    2.8315    5.2482   -2.0215 H   0  0  0  0  0  0  0  0  0  0  0  0
    1.3419    5.5188   -2.9800 H   0  0  0  0  0  0  0  0  0  0  0  0
    1.0152    7.1554   -1.2029 H   0  0  0  0  0  0  0  0  0  0  0  0
    4.0260    5.7537   -0.5079 H   0  0  0  0  0  0  0  0  0  0  0  0
   -1.4488    7.2499    4.2629 H   0  0  0  0  0  0  0  0  0  0  0  0
   -1.8334    5.4646    4.1961 H   0  0  0  0  0  0  0  0  0  0  0  0
   -0.5254    6.2447    1.5234 H   0  0  0  0  0  0  0  0  0  0  0  0
    5.1580    1.9404    0.5393 H   0  0  0  0  0  0  0  0  0  0  0  0
    4.5243    0.3225    0.9167 H   0  0  0  0  0  0  0  0  0  0  0  0
    5.1327    2.4498    3.0208 H   0  0  0  0  0  0  0  0  0  0  0  0
    3.4063    0.3165    3.2803 H   0  0  0  0  0  0  0  0  0  0  0  0
    5.4962   -1.2429    4.3569 H   0  0  0  0  0  0  0  0  0  0  0  0
    4.6084   -1.5632    2.7794 H   0  0  0  0  0  0  0  0  0  0  0  0
    6.4461   -0.8455    1.6342 H   0  0  0  0  0  0  0  0  0  0  0  0
    9.1837   -3.5126    4.4099 H   0  0  0  0  0  0  0  0  0  0  0  0
   11.1777    1.1840    4.2230 H   0  0  0  0  0  0  0  0  0  0  0  0
    9.8961    1.6842    5.4598 H   0  0  0  0  0  0  0  0  0  0  0  0
   11.1162    0.4518    5.8441 H   0  0  0  0  0  0  0  0  0  0  0  0
    8.2321    1.1712    3.6794 H   0  0  0  0  0  0  0  0  0  0  0  0
    0.6947   -0.0747    6.0540 H   0  0  0  0  0  0  0  0  0  0  0  0
    0.2695    1.6560    5.6230 H   0  0  0  0  0  0  0  0  0  0  0  0
   -0.5565    0.7061    3.3581 H   0  0  0  0  0  0  0  0  0  0  0  0
   -2.0712    0.7269    5.5997 H   0  0  0  0  0  0  0  0  0  0  0  0
   -2.4393   -1.9200    5.9536 H   0  0  0  0  0  0  0  0  0  0  0  0
   -0.8994   -1.1733    6.6356 H   0  0  0  0  0  0  0  0  0  0  0  0
   -1.4498   -2.6890    4.0769 H   0  0  0  0  0  0  0  0  0  0  0  0
   -0.3004   -3.4552    7.1514 H   0  0  0  0  0  0  0  0  0  0  0  0
    4.9822   -6.0111    5.0674 H   0  0  0  0  0  0  0  0  0  0  0  0
    3.5935   -6.4812    6.1073 H   0  0  0  0  0  0  0  0  0  0  0  0
    2.9638   -3.5902    1.5475 H   0  0  0  0  0  0  0  0  0  0  0  0
   -6.5068    1.3899    2.6670 H   0  0  0  0  0  0  0  0  0  0  0  0
   -5.0011    2.1663    2.1147 H   0  0  0  0  0  0  0  0  0  0  0  0
   -6.8382    0.2975    0.6154 H   0  0  0  0  0  0  0  0  0  0  0  0
   -5.2958    0.0571   -1.0599 H   0  0  0  0  0  0  0  0  0  0  0  0
   -4.2483    2.8204   -0.4443 H   0  0  0  0  0  0  0  0  0  0  0  0
   -4.3832    2.0868   -2.0463 H   0  0  0  0  0  0  0  0  0  0  0  0
   -6.8517    1.8065   -1.7274 H   0  0  0  0  0  0  0  0  0  0  0  0
   -7.1989    7.9184   -3.8698 H   0  0  0  0  0  0  0  0  0  0  0  0
   -7.5023    8.5762   -2.1985 H   0  0  0  0  0  0  0  0  0  0  0  0
   -5.5934    7.0072   -0.8785 H   0  0  0  0  0  0  0  0  0  0  0  0
   -5.1664    4.6890   -0.0906 H   0  0  0  0  0  0  0  0  0  0  0  0
   -0.8952   -2.2820   -0.7886 H   0  0  0  0  0  0  0  0  0  0  0  0
   -2.2952   -3.0031   -1.5859 H   0  0  0  0  0  0  0  0  0  0  0  0
   -1.5348   -2.3302   -3.8252 H   0  0  0  0  0  0  0  0  0  0  0  0
    0.7440   -1.0816   -2.2130 H   0  0  0  0  0  0  0  0  0  0  0  0
    0.2885    0.3654   -4.2994 H   0  0  0  0  0  0  0  0  0  0  0  0
    2.0994   -1.5273   -4.3000 H   0  0  0  0  0  0  0  0  0  0  0  0
    0.5873   -1.8109   -5.1923 H   0  0  0  0  0  0  0  0  0  0  0  0
    0.9609   -4.0223   -4.5876 H   0  0  0  0  0  0  0  0  0  0  0  0
    1.6076   -3.1921   -0.9130 H   0  0  0  0  0  0  0  0  0  0  0  0
    6.0932   -4.7263   -6.6641 H   0  0  0  0  0  0  0  0  0  0  0  0
    5.0235   -6.2326   -6.6773 H   0  0  0  0  0  0  0  0  0  0  0  0
    3.1342   -4.4067   -5.4162 H   0  0  0  0  0  0  0  0  0  0  0  0
  1  2  1  0
  1121  1  0
  2  3  1  0
  2122  1  0
  2123  1  0
  3  4  1  0
  3  5  1  0
  3124  1  0
  4  8  1  0
  5  7  1  0
  5  6  1  0
  5125  1  0
  6 17  1  0
  7  8  1  0
  7126  1  0
  7127  1  0
  8  9  1  0
  8128  1  0
  9 16  1  0
  9 10  1  0
 10 12  1  0
 10 11  2  0
 12 13  2  0
 13 15  1  0
 13 14  1  0
 14129  1  0
 14130  1  0
 15 16  2  0
 15131  1  0
 16132  1  0
 17 20  1  0
 17 19  2  0
 17 18  1  0
 20 21  1  0
 21 22  1  0
 21133  1  0
 21134  1  0
 22 24  1  0
 22 23  1  0
 22135  1  0
 23 27  1  0
 24 25  1  0
 24 26  1  0
 24136  1  0
 25 39  1  0
 26 27  1  0
 26137  1  0
 26138  1  0
 27 28  1  0
 27139  1  0
 28 38  1  0
 28 29  1  0
 29 30  2  0
 29140  1  0
 30 31  1  0
 31 32  1  0
 31 38  2  0
 32 33  2  0
 32 34  1  0
 34 35  2  0
 35 36  1  0
 35 37  1  0
 36141  1  0
 36142  1  0
 37 38  1  0
 37143  1  0
 39 41  2  0
 39 42  1  0
 39 40  1  0
 42 43  1  0
 43 44  1  0
 43144  1  0
 43145  1  0
 44 46  1  0
 44 45  1  0
 44146  1  0
 45 49  1  0
 46 48  1  0
 46 47  1  0
 46147  1  0
 47 59  1  0
 48 49  1  0
 48148  1  0
 48149  1  0
 49 50  1  0
 49150  1  0
 50 51  1  0
 50 58  1  0
 51 53  1  0
 51 52  2  0
 53 54  1  0
 53151  1  0
 54 55  2  0
 54 56  1  0
 56 57  1  0
 56 58  2  0
 57152  1  0
 57153  1  0
 57154  1  0
 58155  1  0
 59 61  2  0
 59 62  1  0
 59 60  1  0
 62 63  1  0
 63 64  1  0
 63156  1  0
 63157  1  0
 64 66  1  0
 64 65  1  0
 64158  1  0
 65 69  1  0
 66 68  1  0
 66 67  1  0
 66159  1  0
 67 80  1  0
 68 69  1  0
 68160  1  0
 68161  1  0
 69 70  1  0
 69162  1  0
 70 79  1  0
 70 71  1  0
 71 72  2  0
 71163  1  0
 72 73  1  0
 73 79  2  0
 73 74  1  0
 74 76  2  0
 74 75  1  0
 75164  1  0
 75165  1  0
 76 77  1  0
 77 78  2  0
 77166  1  0
 78 79  1  0
 80 83  1  0
 80 82  2  0
 80 81  1  0
 83 84  1  0
 84 85  1  0
 84167  1  0
 84168  1  0
 85 87  1  0
 85 86  1  0
 85169  1  0
 86 90  1  0
 87 88  1  0
 87 89  1  0
 87170  1  0
 88 99  1  0
 89 90  1  0
 89171  1  0
 89172  1  0
 90 91  1  0
 90173  1  0
 91 98  1  0
 91 92  1  0
 92 93  2  0
 92 94  1  0
 94 95  2  0
 95 97  1  0
 95 96  1  0
 96174  1  0
 96175  1  0
 97 98  2  0
 97176  1  0
 98177  1  0
 99100  2  0
 99101  1  0
 99102  1  0
102103  1  0
103104  1  0
103178  1  0
103179  1  0
104105  1  0
104106  1  0
104180  1  0
105109  1  0
106108  1  0
106107  1  0
106181  1  0
107182  1  0
108109  1  0
108183  1  0
108184  1  0
109110  1  0
109185  1  0
110111  1  0
110120  1  0
111112  2  0
111186  1  0
112113  1  0
113114  1  0
113120  2  0
114115  2  0
114116  1  0
116117  2  0
117118  1  0
117119  1  0
118187  1  0
118188  1  0
119120  1  0
119189  1  0
M  CHG  5  18  -1  40  -1  60  -1  81  -1 101  -1
M  END
$$$$
DNA (5'-D(*CP*GP*TP*AP*CP*G)-3')
     RDKit          3D

189203  0  0  0  0  0  0  0  0999 V2000
    4.6313   -3.7130   -4.7616 O   0  0  0  0  0  0  0  0  0  0  0  0
    5.4003   -2.7359   -4.1257 C   0  0  0  0  0  0  0  0  0  0  0  0
    4.6789   -2.2060   -2.9008 C   0  0  0  0  0  0  0  0  0  0  0  0
    5.4520   -1.2474   -2.2910 O   0  0  0  0  0  0  0  0  0  0  0  0
    3.3472   -1.6014   -3.2561 C   0  0  0  0  0  0  0  0  0  0  0  0
    2.2925   -2.0971   -2.4979 O   0  0  0  0  0  0  0  0  0  0  0  0
    3.5828   -0.1386   -2.9032 C   0  0  0  0  0  0  0  0  0  0  0  0
    5.1076   -0.0323   -2.8588 C   0  0  0  0  0  0  0  0  0  0  0  0
    5.4772    1.0976   -2.0505 N   0  0  0  0  0  0  0  0  0  0  0  0
    6.5296    0.9852   -1.2131 C   0  0  0  0  0  0  0  0  0  0  0  0
    7.2079   -0.0708   -1.1028 O   0  0  0  0  0  0  0  0  0  0  0  0
    6.9145    2.0331   -0.4312 N   0  0  0  0  0  0  0  0  0  0  0  0
    6.2725    3.2124   -0.4563 C   0  0  0  0  0  0  0  0  0  0  0  0
    6.6694    4.3186    0.3622 N   0  0  0  0  0  0  0  0  0  0  0  0
    5.1993    3.3228   -1.3115 C   0  0  0  0  0  0  0  0  0  0  0  0
    4.7978    2.2730   -2.1088 C   0  0  0  0  0  0  0  0  0  0  0  0
    1.0465   -2.6870   -3.4687 P   0  0  0  0  0  0  0  0  0  0  0  0
    1.2591   -2.0855   -5.0539 O   0  0  0  0  0  0  0  0  0  0  0  0
    1.1604   -4.1922   -3.5779 O   0  0  0  0  0  0  0  0  0  0  0  0
   -0.4827   -2.2356   -2.9359 O   0  0  0  0  0  0  0  0  0  0  0  0
   -0.7421   -2.6368   -1.6304 C   0  0  0  0  0  0  0  0  0  0  0  0
   -2.1008   -2.1896   -1.1704 C   0  0  0  0  0  0  0  0  0  0  0  0
   -3.1179   -2.7322   -1.9922 O   0  0  0  0  0  0  0  0  0  0  0  0
   -2.5159   -2.7263    0.1632 C   0  0  0  0  0  0  0  0  0  0  0  0
   -1.9837   -2.0283    1.2461 O   0  0  0  0  0  0  0  0  0  0  0  0
   -4.0194   -2.4002    0.1371 C   0  0  0  0  0  0  0  0  0  0  0  0
   -4.2972   -2.3697   -1.3419 C   0  0  0  0  0  0  0  0  0  0  0  0
   -5.3685   -3.2655   -1.7177 N   0  0  0  0  0  0  0  0  0  0  0  0
   -5.7406   -4.4406   -1.1953 C   0  0  0  0  0  0  0  0  0  0  0  0
   -6.8112   -4.9047   -1.8928 N   0  0  0  0  0  0  0  0  0  0  0  0
   -7.1231   -4.0225   -2.8639 C   0  0  0  0  0  0  0  0  0  0  0  0
   -8.0796   -3.9556   -3.8496 C   0  0  0  0  0  0  0  0  0  0  0  0
   -8.9212   -4.8805   -3.9756 O   0  0  0  0  0  0  0  0  0  0  0  0
   -8.0941   -2.8864   -4.6694 N   0  0  0  0  0  0  0  0  0  0  0  0
   -7.2266   -1.8790   -4.5807 C   0  0  0  0  0  0  0  0  0  0  0  0
   -7.2521   -0.7632   -5.4443 N   0  0  0  0  0  0  0  0  0  0  0  0
   -6.2803   -1.9411   -3.6087 N   0  0  0  0  0  0  0  0  0  0  0  0
   -6.2155   -2.9931   -2.7525 C   0  0  0  0  0  0  0  0  0  0  0  0
   -1.4196   -3.0694    2.4212 P   0  0  0  0  0  0  0  0  0  0  0  0
   -1.3580   -2.2442    3.9124 O   0  0  0  0  0  0  0  0  0  0  0  0
   -2.3740   -4.2356    2.6485 O   0  0  0  0  0  0  0  0  0  0  0  0
    0.1028   -3.6174    2.0239 O   0  0  0  0  0  0  0  0  0  0  0  0
    1.1343   -2.8216    2.5351 C   0  0  0  0  0  0  0  0  0  0  0  0
    2.4176   -3.6212    2.4218 C   0  0  0  0  0  0  0  0  0  0  0  0
    2.6871   -3.9514    1.1026 O   0  0  0  0  0  0  0  0  0  0  0  0
    3.6356   -2.8419    2.8083 C   0  0  0  0  0  0  0  0  0  0  0  0
    3.5879   -1.5987    2.2052 O   0  0  0  0  0  0  0  0  0  0  0  0
    4.7485   -3.6783    2.1414 C   0  0  0  0  0  0  0  0  0  0  0  0
    4.0051   -4.3666    1.0513 C   0  0  0  0  0  0  0  0  0  0  0  0
    4.0439   -5.7975    1.1120 N   0  0  0  0  0  0  0  0  0  0  0  0
    4.0181   -6.5367   -0.0234 C   0  0  0  0  0  0  0  0  0  0  0  0
    3.9573   -5.9131   -1.1335 O   0  0  0  0  0  0  0  0  0  0  0  0
    4.0549   -7.8960    0.0102 N   0  0  0  0  0  0  0  0  0  0  0  0
    4.1181   -8.5753    1.1626 C   0  0  0  0  0  0  0  0  0  0  0  0
    4.1538   -9.8211    1.2528 O   0  0  0  0  0  0  0  0  0  0  0  0
    4.1462   -7.8555    2.3343 C   0  0  0  0  0  0  0  0  0  0  0  0
    4.2140   -8.5553    3.6652 C   0  0  0  0  0  0  0  0  0  0  0  0
    4.1087   -6.4765    2.2887 C   0  0  0  0  0  0  0  0  0  0  0  0
    4.0672   -0.3773    3.2579 P   0  0  0  0  0  0  0  0  0  0  0  0
    4.9264   -1.0365    4.5607 O   0  0  0  0  0  0  0  0  0  0  0  0
    4.9829    0.5400    2.4788 O   0  0  0  0  0  0  0  0  0  0  0  0
    2.7204    0.4120    3.8459 O   0  0  0  0  0  0  0  0  0  0  0  0
    2.7116    1.7682    3.5278 C   0  0  0  0  0  0  0  0  0  0  0  0
    1.5772    2.4959    4.1668 C   0  0  0  0  0  0  0  0  0  0  0  0
    1.5377    2.4862    5.5304 O   0  0  0  0  0  0  0  0  0  0  0  0
    0.2322    1.8958    3.7767 C   0  0  0  0  0  0  0  0  0  0  0  0
    0.3691    1.3395    2.5023 O   0  0  0  0  0  0  0  0  0  0  0  0
    0.0074    0.8797    4.8489 C   0  0  0  0  0  0  0  0  0  0  0  0
    0.8204    1.4076    5.9866 C   0  0  0  0  0  0  0  0  0  0  0  0
    1.7716    0.4605    6.5328 N   0  0  0  0  0  0  0  0  0  0  0  0
    2.9994    0.7740    7.0440 C   0  0  0  0  0  0  0  0  0  0  0  0
    3.6177   -0.3462    7.4585 N   0  0  0  0  0  0  0  0  0  0  0  0
    2.7818   -1.3690    7.2101 C   0  0  0  0  0  0  0  0  0  0  0  0
    2.9674   -2.7132    7.4577 C   0  0  0  0  0  0  0  0  0  0  0  0
    4.1864   -3.1667    8.0514 N   0  0  0  0  0  0  0  0  0  0  0  0
    1.9681   -3.5386    7.1126 N   0  0  0  0  0  0  0  0  0  0  0  0
    0.8329   -3.0487    6.5450 C   0  0  0  0  0  0  0  0  0  0  0  0
    0.6591   -1.7354    6.3054 N   0  0  0  0  0  0  0  0  0  0  0  0
    1.6347   -0.8864    6.6373 C   0  0  0  0  0  0  0  0  0  0  0  0
   -0.5416    2.1962    1.3643 P   0  0  0  0  0  0  0  0  0  0  0  0
   -2.0491    1.4727    1.2152 O   0  0  0  0  0  0  0  0  0  0  0  0
   -0.6709    3.6572    1.7922 O   0  0  0  0  0  0  0  0  0  0  0  0
    0.2045    2.2028   -0.1472 O   0  0  0  0  0  0  0  0  0  0  0  0
   -0.7835    2.0809   -1.1195 C   0  0  0  0  0  0  0  0  0  0  0  0
   -0.2222    2.1327   -2.5140 C   0  0  0  0  0  0  0  0  0  0  0  0
   -1.2663    1.9980   -3.4163 O   0  0  0  0  0  0  0  0  0  0  0  0
    0.4465    3.4570   -2.8398 C   0  0  0  0  0  0  0  0  0  0  0  0
   -0.4254    4.4470   -2.4604 O   0  0  0  0  0  0  0  0  0  0  0  0
    0.3454    3.3821   -4.3760 C   0  0  0  0  0  0  0  0  0  0  0  0
   -1.0601    2.8381   -4.4852 C   0  0  0  0  0  0  0  0  0  0  0  0
   -1.3609    2.2620   -5.7693 N   0  0  0  0  0  0  0  0  0  0  0  0
   -2.6473    1.8358   -5.9444 C   0  0  0  0  0  0  0  0  0  0  0  0
   -3.4947    1.9560   -5.0142 O   0  0  0  0  0  0  0  0  0  0  0  0
   -3.0277    1.2884   -7.0943 N   0  0  0  0  0  0  0  0  0  0  0  0
   -2.1558    1.1482   -8.0940 C   0  0  0  0  0  0  0  0  0  0  0  0
   -2.6524    0.5466   -9.2993 N   0  0  0  0  0  0  0  0  0  0  0  0
   -0.8411    1.5629   -7.9699 C   0  0  0  0  0  0  0  0  0  0  0  0
   -0.4607    2.1332   -6.7606 C   0  0  0  0  0  0  0  0  0  0  0  0
    0.2201    5.6353   -1.4789 P   0  0  0  0  0  0  0  0  0  0  0  0
    1.4920    5.0742   -0.8715 O   0  0  0  0  0  0  0  0  0  0  0  0
    0.4849    7.0719   -2.3144 O   0  0  0  0  0  0  0  0  0  0  0  0
   -0.8883    5.9813   -0.2176 O   0  0  0  0  0  0  0  0  0  0  0  0
   -2.1877    5.8993   -0.7467 C   0  0  0  0  0  0  0  0  0  0  0  0
   -3.1426    5.8714    0.4059 C   0  0  0  0  0  0  0  0  0  0  0  0
   -4.4911    5.7839   -0.0149 O   0  0  0  0  0  0  0  0  0  0  0  0
   -3.1886    7.1641    1.1740 C   0  0  0  0  0  0  0  0  0  0  0  0
   -2.1163    7.3030    2.0482 O   0  0  0  0  0  0  0  0  0  0  0  0
   -4.5211    7.0218    1.9220 C   0  0  0  0  0  0  0  0  0  0  0  0
   -5.1095    5.7994    1.2434 C   0  0  0  0  0  0  0  0  0  0  0  0
   -6.5499    5.8355    1.1525 N   0  0  0  0  0  0  0  0  0  0  0  0
   -7.3351    6.7097    0.5039 C   0  0  0  0  0  0  0  0  0  0  0  0
   -8.6296    6.3510    0.6929 N   0  0  0  0  0  0  0  0  0  0  0  0
   -8.6842    5.2570    1.4551 C   0  0  0  0  0  0  0  0  0  0  0  0
   -9.6644    4.4387    1.9795 C   0  0  0  0  0  0  0  0  0  0  0  0
  -10.8656    4.6961    1.7421 O   0  0  0  0  0  0  0  0  0  0  0  0
   -9.3897    3.3659    2.7421 N   0  0  0  0  0  0  0  0  0  0  0  0
   -8.0985    3.0797    3.0037 C   0  0  0  0  0  0  0  0  0  0  0  0
   -7.7053    1.9664    3.8024 N   0  0  0  0  0  0  0  0  0  0  0  0
   -7.0930    3.8490    2.5143 N   0  0  0  0  0  0  0  0  0  0  0  0
   -7.3779    4.9315    1.7445 C   0  0  0  0  0  0  0  0  0  0  0  0
    3.8881   -3.3250   -5.2968 H   0  0  0  0  0  0  0  0  0  0  0  0
    5.6094   -1.9403   -4.8660 H   0  0  0  0  0  0  0  0  0  0  0  0
    6.3488   -3.2202   -3.8355 H   0  0  0  0  0  0  0  0  0  0  0  0
    4.5705   -3.0610   -2.2020 H   0  0  0  0  0  0  0  0  0  0  0  0
    3.1481   -1.6875   -4.3470 H   0  0  0  0  0  0  0  0  0  0  0  0
    3.1640    0.1303   -1.9211 H   0  0  0  0  0  0  0  0  0  0  0  0
    3.1761    0.5148   -3.6909 H   0  0  0  0  0  0  0  0  0  0  0  0
    5.5106    0.1002   -3.9017 H   0  0  0  0  0  0  0  0  0  0  0  0
    6.4401    5.2690   -0.0029 H   0  0  0  0  0  0  0  0  0  0  0  0
    7.1605    4.1890    1.2726 H   0  0  0  0  0  0  0  0  0  0  0  0
    4.6434    4.2507   -1.3734 H   0  0  0  0  0  0  0  0  0  0  0  0
    3.9700    2.3057   -2.7921 H   0  0  0  0  0  0  0  0  0  0  0  0
    0.0209   -2.1404   -1.0035 H   0  0  0  0  0  0  0  0  0  0  0  0
   -0.6256   -3.7270   -1.4814 H   0  0  0  0  0  0  0  0  0  0  0  0
   -2.2291   -1.0980   -1.2517 H   0  0  0  0  0  0  0  0  0  0  0  0
   -2.3604   -3.8019    0.2294 H   0  0  0  0  0  0  0  0  0  0  0  0
   -4.5333   -3.1944    0.6867 H   0  0  0  0  0  0  0  0  0  0  0  0
   -4.2336   -1.4283    0.6100 H   0  0  0  0  0  0  0  0  0  0  0  0
   -4.5487   -1.3208   -1.6397 H   0  0  0  0  0  0  0  0  0  0  0  0
   -5.2396   -4.9024   -0.3566 H   0  0  0  0  0  0  0  0  0  0  0  0
   -6.4461   -0.1544   -5.6380 H   0  0  0  0  0  0  0  0  0  0  0  0
   -8.1529   -0.5373   -5.9228 H   0  0  0  0  0  0  0  0  0  0  0  0
   -5.5864   -1.1464   -3.5297 H   0  0  0  0  0  0  0  0  0  0  0  0
    1.2774   -1.8868    1.9811 H   0  0  0  0  0  0  0  0  0  0  0  0
    0.9160   -2.6179    3.6000 H   0  0  0  0  0  0  0  0  0  0  0  0
    2.2565   -4.5157    3.0606 H   0  0  0  0  0  0  0  0  0  0  0  0
    3.8267   -2.7807    3.9001 H   0  0  0  0  0  0  0  0  0  0  0  0
    5.2708   -4.3155    2.8571 H   0  0  0  0  0  0  0  0  0  0  0  0
    5.5358   -2.9766    1.7397 H   0  0  0  0  0  0  0  0  0  0  0  0
    4.4204   -4.0081    0.0746 H   0  0  0  0  0  0  0  0  0  0  0  0
    4.0362   -8.4495   -0.8676 H   0  0  0  0  0  0  0  0  0  0  0  0
    4.8586   -9.4365    3.6473 H   0  0  0  0  0  0  0  0  0  0  0  0
    3.1411   -8.8553    3.8574 H   0  0  0  0  0  0  0  0  0  0  0  0
    4.4324   -7.8205    4.4586 H   0  0  0  0  0  0  0  0  0  0  0  0
    4.1347   -5.9603    3.2282 H   0  0  0  0  0  0  0  0  0  0  0  0
    2.6074    1.8818    2.4194 H   0  0  0  0  0  0  0  0  0  0  0  0
    3.6880    2.1861    3.7796 H   0  0  0  0  0  0  0  0  0  0  0  0
    1.6466    3.5600    3.8469 H   0  0  0  0  0  0  0  0  0  0  0  0
   -0.4769    2.7287    3.7921 H   0  0  0  0  0  0  0  0  0  0  0  0
    0.2936   -0.1484    4.5455 H   0  0  0  0  0  0  0  0  0  0  0  0
   -1.0805    0.8493    5.0799 H   0  0  0  0  0  0  0  0  0  0  0  0
    0.1105    1.7265    6.7920 H   0  0  0  0  0  0  0  0  0  0  0  0
    3.3592    1.8007    7.0776 H   0  0  0  0  0  0  0  0  0  0  0  0
    4.5535   -4.1319    7.9090 H   0  0  0  0  0  0  0  0  0  0  0  0
    4.7332   -2.5121    8.6484 H   0  0  0  0  0  0  0  0  0  0  0  0
    0.0471   -3.7415    6.2798 H   0  0  0  0  0  0  0  0  0  0  0  0
   -1.3263    1.1075   -1.0427 H   0  0  0  0  0  0  0  0  0  0  0  0
   -1.5605    2.8597   -1.0317 H   0  0  0  0  0  0  0  0  0  0  0  0
    0.4724    1.2864   -2.7061 H   0  0  0  0  0  0  0  0  0  0  0  0
    1.4716    3.5406   -2.4882 H   0  0  0  0  0  0  0  0  0  0  0  0
    0.5046    4.3472   -4.8513 H   0  0  0  0  0  0  0  0  0  0  0  0
    1.0891    2.6015   -4.6697 H   0  0  0  0  0  0  0  0  0  0  0  0
   -1.7319    3.7298   -4.3475 H   0  0  0  0  0  0  0  0  0  0  0  0
   -3.5351    0.9787   -9.6722 H   0  0  0  0  0  0  0  0  0  0  0  0
   -2.1795   -0.2468   -9.7645 H   0  0  0  0  0  0  0  0  0  0  0  0
   -0.1538    1.4422   -8.7840 H   0  0  0  0  0  0  0  0  0  0  0  0
    0.5476    2.4661   -6.6259 H   0  0  0  0  0  0  0  0  0  0  0  0
   -2.3245    6.8876   -1.2784 H   0  0  0  0  0  0  0  0  0  0  0  0
   -2.3205    5.0883   -1.4624 H   0  0  0  0  0  0  0  0  0  0  0  0
   -2.9920    5.0056    1.0768 H   0  0  0  0  0  0  0  0  0  0  0  0
   -3.2902    7.9902    0.4712 H   0  0  0  0  0  0  0  0  0  0  0  0
   -1.5336    6.5020    2.0748 H   0  0  0  0  0  0  0  0  0  0  0  0
   -4.3821    6.7998    2.9935 H   0  0  0  0  0  0  0  0  0  0  0  0
   -5.1852    7.8954    1.7529 H   0  0  0  0  0  0  0  0  0  0  0  0
   -4.7705    4.8860    1.7815 H   0  0  0  0  0  0  0  0  0  0  0  0
   -6.9690    7.5521   -0.0677 H   0  0  0  0  0  0  0  0  0  0  0  0
   -6.9175    2.0366    4.4812 H   0  0  0  0  0  0  0  0  0  0  0  0
   -8.2010    1.0281    3.7318 H   0  0  0  0  0  0  0  0  0  0  0  0
   -6.0834    3.6027    2.7347 H   0  0  0  0  0  0  0  0  0  0  0  0
  1  2  1  0
  1121  1  0
  2  3  1  0
  2122  1  0
  2123  1  0
  3  4  1  0
  3  5  1  0
  3124  1  0
  4  8  1  0
  5  7  1  0
  5  6  1  0
  5125  1  0
  6 17  1  0
  7  8  1  0
  7126  1  0
  7127  1  0
  8  9  1  0
  8128  1  0
  9 16  1  0
  9 10  1  0
 10 12  1  0
 10 11  2  0
 12 13  2  0
 13 15  1  0
 13 14  1  0
 14129  1  0
 14130  1  0
 15 16  2  0
 15131  1  0
 16132  1  0
 17 20  1  0
 17 19  2  0
 17 18  1  0
 20 21  1  0
 21 22  1  0
 21133  1  0
 21134  1  0
 22 24  1  0
 22 23  1  0
 22135  1  0
 23 27  1  0
 24 25  1  0
 24 26  1  0
 24136  1  0
 25 39  1  0
 26 27  1  0
 26137  1  0
 26138  1  0
 27 28  1  0
 27139  1  0
 28 38  1  0
 28 29  1  0
 29 30  2  0
 29140  1  0
 30 31  1  0
 31 32  1  0
 31 38  2  0
 32 33  2  0
 32 34  1  0
 34 35  2  0
 35 36  1  0
 35 37  1  0
 36141  1  0
 36142  1  0
 37 38  1  0
 37143  1  0
 39 41  2  0
 39 42  1  0
 39 40  1  0
 42 43  1  0
 43 44  1  0
 43144  1  0
 43145  1  0
 44 46  1  0
 44 45  1  0
 44146  1  0
 45 49  1  0
 46 48  1  0
 46 47  1  0
 46147  1  0
 47 59  1  0
 48 49  1  0
 48148  1  0
 48149  1  0
 49 50  1  0
 49150  1  0
 50 51  1  0
 50 58  1  0
 51 53  1  0
 51 52  2  0
 53 54  1  0
 53151  1  0
 54 55  2  0
 54 56  1  0
 56 57  1  0
 56 58  2  0
 57152  1  0
 57153  1  0
 57154  1  0
 58155  1  0
 59 61  2  0
 59 62  1  0
 59 60  1  0
 62 63  1  0
 63 64  1  0
 63156  1  0
 63157  1  0
 64 66  1  0
 64 65  1  0
 64158  1  0
 65 69  1  0
 66 68  1  0
 66 67  1  0
 66159  1  0
 67 80  1  0
 68 69  1  0
 68160  1  0
 68161  1  0
 69 70  1  0
 69162  1  0
 70 79  1  0
 70 71  1  0
 71 72  2  0
 71163  1  0
 72 73  1  0
 73 79  2  0
 73 74  1  0
 74 76  2  0
 74 75  1  0
 75164  1  0
 75165  1  0
 76 77  1  0
 77 78  2  0
 77166  1  0
 78 79  1  0
 80 83  1  0
 80 82  2  0
 80 81  1  0
 83 84  1  0
 84 85  1  0
 84167  1  0
 84168  1  0
 85 87  1  0
 85 86  1  0
 85169  1  0
 86 90  1  0
 87 88  1  0
 87 89  1  0
 87170  1  0
 88 99  1  0
 89 90  1  0
 89171  1  0
 89172  1  0
 90 91  1  0
 90173  1  0
 91 98  1  0
 91 92  1  0
 92 93  2  0
 92 94  1  0
 94 95  2  0
 95 97  1  0
 95 96  1  0
 96174  1  0
 96175  1  0
 97 98  2  0
 97176  1  0
 98177  1  0
 99100  2  0
 99101  1  0
 99102  1  0
102103  1  0
103104  1  0
103178  1  0
103179  1  0
104105  1  0
104106  1  0
104180  1  0
105109  1  0
106108  1  0
106107  1  0
106181  1  0
107182  1  0
108109  1  0
108183  1  0
108184  1  0
109110  1  0
109185  1  0
110111  1  0
110120  1  0
111112  2  0
111186  1  0
112113  1  0
113114  1  0
113120  2  0
114115  2  0
114116  1  0
116117  2  0
117118  1  0
117119  1  0
118187  1  0
118188  1  0
119120  1  0
119189  1  0
M  CHG  5  18  -1  40  -1  60  -1  81  -1 101  -1
M  END
$$$$
DNA (5'-D(*CP*GP*TP*AP*CP*G)-3')
     RDKit          3D

189203  0  0  0  0  0  0  0  0999 V2000
    1.6752   -0.6695    5.0828 O   0  0  0  0  0  0  0  0  0  0  0  0
    1.2024   -1.8786    5.5390 C   0  0  0  0  0  0  0  0  0  0  0  0
    2.4011   -2.8304    5.5641 C   0  0  0  0  0  0  0  0  0  0  0  0
    3.3258   -2.2815    6.4156 O   0  0  0  0  0  0  0  0  0  0  0  0
    1.9613   -4.1628    6.0898 C   0  0  0  0  0  0  0  0  0  0  0  0
    2.1572   -5.1727    5.1702 O   0  0  0  0  0  0  0  0  0  0  0  0
    2.9404   -4.3985    7.2421 C   0  0  0  0  0  0  0  0  0  0  0  0
    3.9544   -3.3141    7.1164 C   0  0  0  0  0  0  0  0  0  0  0  0
    5.2084   -3.6938    6.5404 N   0  0  0  0  0  0  0  0  0  0  0  0
    6.2070   -2.7638    6.5842 C   0  0  0  0  0  0  0  0  0  0  0  0
    6.0043   -1.6452    7.1091 O   0  0  0  0  0  0  0  0  0  0  0  0
    7.4175   -3.0267    6.0698 N   0  0  0  0  0  0  0  0  0  0  0  0
    7.7371   -4.1970    5.4843 C   0  0  0  0  0  0  0  0  0  0  0  0
    9.0359   -4.4502    4.9429 N   0  0  0  0  0  0  0  0  0  0  0  0
    6.7438   -5.1520    5.4286 C   0  0  0  0  0  0  0  0  0  0  0  0
    5.5019   -4.8533    5.9681 C   0  0  0  0  0  0  0  0  0  0  0  0
    0.7104   -6.0212    4.8436 P   0  0  0  0  0  0  0  0  0  0  0  0
    1.0919   -7.2089    3.7099 O   0  0  0  0  0  0  0  0  0  0  0  0
    0.2136   -6.6280    6.1147 O   0  0  0  0  0  0  0  0  0  0  0  0
   -0.3535   -4.8981    4.1654 O   0  0  0  0  0  0  0  0  0  0  0  0
   -1.5783   -5.4477    3.8112 C   0  0  0  0  0  0  0  0  0  0  0  0
   -2.4315   -4.3520    3.2784 C   0  0  0  0  0  0  0  0  0  0  0  0
   -3.7047   -4.8153    2.8963 O   0  0  0  0  0  0  0  0  0  0  0  0
   -1.9678   -3.7757    1.9595 C   0  0  0  0  0  0  0  0  0  0  0  0
   -0.8326   -2.9933    2.0527 O   0  0  0  0  0  0  0  0  0  0  0  0
   -3.2049   -2.9087    1.6549 C   0  0  0  0  0  0  0  0  0  0  0  0
   -4.2847   -3.7978    2.1707 C   0  0  0  0  0  0  0  0  0  0  0  0
   -5.2242   -3.1132    3.0359 N   0  0  0  0  0  0  0  0  0  0  0  0
   -5.7636   -3.5609    4.1850 C   0  0  0  0  0  0  0  0  0  0  0  0
   -6.5938   -2.6311    4.6970 N   0  0  0  0  0  0  0  0  0  0  0  0
   -6.6063   -1.5615    3.8852 C   0  0  0  0  0  0  0  0  0  0  0  0
   -7.2448   -0.3536    3.8982 C   0  0  0  0  0  0  0  0  0  0  0  0
   -8.0190   -0.0576    4.8190 O   0  0  0  0  0  0  0  0  0  0  0  0
   -7.0442    0.5370    2.9100 N   0  0  0  0  0  0  0  0  0  0  0  0
   -6.2078    0.2402    1.8971 C   0  0  0  0  0  0  0  0  0  0  0  0
   -6.0119    1.2031    0.8594 N   0  0  0  0  0  0  0  0  0  0  0  0
   -5.5836   -0.9512    1.8925 N   0  0  0  0  0  0  0  0  0  0  0  0
   -5.7399   -1.8810    2.8456 C   0  0  0  0  0  0  0  0  0  0  0  0
    0.2627   -3.5497    0.8858 P   0  0  0  0  0  0  0  0  0  0  0  0
    1.2024   -4.8259    1.4957 O   0  0  0  0  0  0  0  0  0  0  0  0
   -0.5504   -4.1092   -0.2630 O   0  0  0  0  0  0  0  0  0  0  0  0
    1.2553   -2.3020    0.3301 O   0  0  0  0  0  0  0  0  0  0  0  0
    1.0923   -2.0680   -1.0428 C   0  0  0  0  0  0  0  0  0  0  0  0
    1.9881   -0.9064   -1.4074 C   0  0  0  0  0  0  0  0  0  0  0  0
    3.3260   -1.1818   -1.1352 O   0  0  0  0  0  0  0  0  0  0  0  0
    2.0110   -0.6011   -2.8812 C   0  0  0  0  0  0  0  0  0  0  0  0
    2.6692    0.6025   -3.0641 O   0  0  0  0  0  0  0  0  0  0  0  0
    2.9177   -1.7645   -3.3472 C   0  0  0  0  0  0  0  0  0  0  0  0
    3.8767   -1.8329   -2.2072 C   0  0  0  0  0  0  0  0  0  0  0  0
    4.2502   -3.1737   -1.8482 N   0  0  0  0  0  0  0  0  0  0  0  0
    4.7028   -3.5216   -0.6335 C   0  0  0  0  0  0  0  0  0  0  0  0
    4.8135   -2.6383    0.2609 O   0  0  0  0  0  0  0  0  0  0  0  0
    5.0415   -4.7953   -0.3496 N   0  0  0  0  0  0  0  0  0  0  0  0
    4.9521   -5.7918   -1.2471 C   0  0  0  0  0  0  0  0  0  0  0  0
    5.2680   -6.9707   -0.9756 O   0  0  0  0  0  0  0  0  0  0  0  0
    4.4854   -5.4587   -2.5159 C   0  0  0  0  0  0  0  0  0  0  0  0
    4.3791   -6.5441   -3.5234 C   0  0  0  0  0  0  0  0  0  0  0  0
    4.1470   -4.1451   -2.7739 C   0  0  0  0  0  0  0  0  0  0  0  0
    2.0303    1.6188   -4.2043 P   0  0  0  0  0  0  0  0  0  0  0  0
    3.2684    2.4586   -5.0440 O   0  0  0  0  0  0  0  0  0  0  0  0
    1.3873    0.7325   -5.2797 O   0  0  0  0  0  0  0  0  0  0  0  0
    0.8545    2.6793   -3.6978 O   0  0  0  0  0  0  0  0  0  0  0  0
    1.1993    4.0166   -3.9102 C   0  0  0  0  0  0  0  0  0  0  0  0
    0.0102    4.8031   -4.2575 C   0  0  0  0  0  0  0  0  0  0  0  0
    0.2634    6.1658   -4.5074 O   0  0  0  0  0  0  0  0  0  0  0  0
   -1.0686    4.9404   -3.2160 C   0  0  0  0  0  0  0  0  0  0  0  0
   -0.5975    5.7387   -2.1837 O   0  0  0  0  0  0  0  0  0  0  0  0
   -2.0237    5.7920   -4.1052 C   0  0  0  0  0  0  0  0  0  0  0  0
   -0.9679    6.7986   -4.5898 C   0  0  0  0  0  0  0  0  0  0  0  0
   -1.0573    7.9082   -3.6339 N   0  0  0  0  0  0  0  0  0  0  0  0
   -0.1014    8.3763   -2.8239 C   0  0  0  0  0  0  0  0  0  0  0  0
   -0.6210    9.4033   -2.1146 N   0  0  0  0  0  0  0  0  0  0  0  0
   -1.9020    9.5745   -2.4835 C   0  0  0  0  0  0  0  0  0  0  0  0
   -2.8771   10.4666   -2.0820 C   0  0  0  0  0  0  0  0  0  0  0  0
   -2.5619   11.4322   -1.0863 N   0  0  0  0  0  0  0  0  0  0  0  0
   -4.0949   10.3906   -2.6479 N   0  0  0  0  0  0  0  0  0  0  0  0
   -4.3872    9.4723   -3.5908 C   0  0  0  0  0  0  0  0  0  0  0  0
   -3.4278    8.5888   -3.9911 N   0  0  0  0  0  0  0  0  0  0  0  0
   -2.1869    8.6146   -3.4611 C   0  0  0  0  0  0  0  0  0  0  0  0
   -1.0089    5.2200   -0.6458 P   0  0  0  0  0  0  0  0  0  0  0  0
   -2.5213    4.4695   -0.5937 O   0  0  0  0  0  0  0  0  0  0  0  0
   -1.0959    6.4409    0.2495 O   0  0  0  0  0  0  0  0  0  0  0  0
    0.0954    4.1617    0.0136 O   0  0  0  0  0  0  0  0  0  0  0  0
    0.8876    4.7756    1.0143 C   0  0  0  0  0  0  0  0  0  0  0  0
    1.9737    3.7615    1.2770 C   0  0  0  0  0  0  0  0  0  0  0  0
    2.8973    4.1472    2.2412 O   0  0  0  0  0  0  0  0  0  0  0  0
    1.3094    2.5195    1.8467 C   0  0  0  0  0  0  0  0  0  0  0  0
    0.6308    1.8000    0.9002 O   0  0  0  0  0  0  0  0  0  0  0  0
    2.5548    1.8230    2.3879 C   0  0  0  0  0  0  0  0  0  0  0  0
    3.4623    2.9649    2.7155 C   0  0  0  0  0  0  0  0  0  0  0  0
    4.7994    2.7709    2.1321 N   0  0  0  0  0  0  0  0  0  0  0  0
    5.4134    3.8915    1.7114 C   0  0  0  0  0  0  0  0  0  0  0  0
    4.8802    5.0369    1.8187 O   0  0  0  0  0  0  0  0  0  0  0  0
    6.6515    3.8342    1.1458 N   0  0  0  0  0  0  0  0  0  0  0  0
    7.2709    2.6395    1.0050 C   0  0  0  0  0  0  0  0  0  0  0  0
    8.5598    2.6002    0.4095 N   0  0  0  0  0  0  0  0  0  0  0  0
    6.6184    1.4908    1.4473 C   0  0  0  0  0  0  0  0  0  0  0  0
    5.3545    1.5489    2.0249 C   0  0  0  0  0  0  0  0  0  0  0  0
   -0.9515    1.4666    1.3075 P   0  0  0  0  0  0  0  0  0  0  0  0
   -1.5579    2.5925    2.1576 O   0  0  0  0  0  0  0  0  0  0  0  0
   -1.0331    0.0887    2.3056 O   0  0  0  0  0  0  0  0  0  0  0  0
   -1.9772    1.2190    0.0349 O   0  0  0  0  0  0  0  0  0  0  0  0
   -1.4421    1.1991   -1.2204 C   0  0  0  0  0  0  0  0  0  0  0  0
   -2.5276    0.9977   -2.2918 C   0  0  0  0  0  0  0  0  0  0  0  0
   -1.9894    0.9869   -3.5771 O   0  0  0  0  0  0  0  0  0  0  0  0
   -3.1349   -0.3554   -2.0524 C   0  0  0  0  0  0  0  0  0  0  0  0
   -4.3777   -0.1783   -1.4469 O   0  0  0  0  0  0  0  0  0  0  0  0
   -3.3303   -0.8973   -3.4306 C   0  0  0  0  0  0  0  0  0  0  0  0
   -2.8430    0.1851   -4.3280 C   0  0  0  0  0  0  0  0  0  0  0  0
   -2.2661   -0.3713   -5.5116 N   0  0  0  0  0  0  0  0  0  0  0  0
   -2.2063   -1.6265   -5.9681 C   0  0  0  0  0  0  0  0  0  0  0  0
   -1.5583   -1.6837   -7.1521 N   0  0  0  0  0  0  0  0  0  0  0  0
   -1.1853   -0.4376   -7.4784 C   0  0  0  0  0  0  0  0  0  0  0  0
   -0.5089    0.0438   -8.5653 C   0  0  0  0  0  0  0  0  0  0  0  0
   -0.1137   -0.7216   -9.4890 O   0  0  0  0  0  0  0  0  0  0  0  0
   -0.2597    1.3465   -8.6546 N   0  0  0  0  0  0  0  0  0  0  0  0
   -0.6873    2.1619   -7.6571 C   0  0  0  0  0  0  0  0  0  0  0  0
   -0.3815    3.5492   -7.8268 N   0  0  0  0  0  0  0  0  0  0  0  0
   -1.3550    1.6947   -6.5818 N   0  0  0  0  0  0  0  0  0  0  0  0
   -1.6304    0.3872   -6.4469 C   0  0  0  0  0  0  0  0  0  0  0  0
    2.4517   -0.7377    4.4881 H   0  0  0  0  0  0  0  0  0  0  0  0
    0.8063   -1.8030    6.5910 H   0  0  0  0  0  0  0  0  0  0  0  0
    0.4311   -2.3270    4.9053 H   0  0  0  0  0  0  0  0  0  0  0  0
    2.7592   -2.8835    4.5093 H   0  0  0  0  0  0  0  0  0  0  0  0
    0.9109   -4.1019    6.4445 H   0  0  0  0  0  0  0  0  0  0  0  0
    3.3148   -5.4175    7.2971 H   0  0  0  0  0  0  0  0  0  0  0  0
    2.3433   -4.1580    8.1746 H   0  0  0  0  0  0  0  0  0  0  0  0
    4.1995   -2.8566    8.1204 H   0  0  0  0  0  0  0  0  0  0  0  0
    9.5266   -5.3056    5.2650 H   0  0  0  0  0  0  0  0  0  0  0  0
    9.4133   -3.7687    4.2631 H   0  0  0  0  0  0  0  0  0  0  0  0
    6.9075   -6.1222    4.9782 H   0  0  0  0  0  0  0  0  0  0  0  0
    4.7569   -5.6161    5.9067 H   0  0  0  0  0  0  0  0  0  0  0  0
   -2.0468   -5.7943    4.7553 H   0  0  0  0  0  0  0  0  0  0  0  0
   -1.4957   -6.2927    3.1077 H   0  0  0  0  0  0  0  0  0  0  0  0
   -2.5297   -3.5359    4.0069 H   0  0  0  0  0  0  0  0  0  0  0  0
   -1.9129   -4.5794    1.2112 H   0  0  0  0  0  0  0  0  0  0  0  0
   -3.0279   -1.9878    2.2611 H   0  0  0  0  0  0  0  0  0  0  0  0
   -3.2117   -2.7332    0.5667 H   0  0  0  0  0  0  0  0  0  0  0  0
   -4.8272   -4.2191    1.2937 H   0  0  0  0  0  0  0  0  0  0  0  0
   -5.5876   -4.5191    4.6687 H   0  0  0  0  0  0  0  0  0  0  0  0
   -5.3538    2.0183    1.0430 H   0  0  0  0  0  0  0  0  0  0  0  0
   -6.4939    1.1302   -0.0696 H   0  0  0  0  0  0  0  0  0  0  0  0
   -4.9451   -1.1417    1.0901 H   0  0  0  0  0  0  0  0  0  0  0  0
    1.3302   -3.0056   -1.5681 H   0  0  0  0  0  0  0  0  0  0  0  0
    0.0441   -1.8326   -1.2705 H   0  0  0  0  0  0  0  0  0  0  0  0
    1.6458   -0.0234   -0.8736 H   0  0  0  0  0  0  0  0  0  0  0  0
    1.0449   -0.6561   -3.3815 H   0  0  0  0  0  0  0  0  0  0  0  0
    2.2406   -2.6576   -3.3481 H   0  0  0  0  0  0  0  0  0  0  0  0
    3.3519   -1.5770   -4.3336 H   0  0  0  0  0  0  0  0  0  0  0  0
    4.8343   -1.2994   -2.4811 H   0  0  0  0  0  0  0  0  0  0  0  0
    5.3964   -5.0699    0.6017 H   0  0  0  0  0  0  0  0  0  0  0  0
    3.4884   -7.1586   -3.2150 H   0  0  0  0  0  0  0  0  0  0  0  0
    4.1335   -6.1430   -4.5157 H   0  0  0  0  0  0  0  0  0  0  0  0
    5.2642   -7.2043   -3.5170 H   0  0  0  0  0  0  0  0  0  0  0  0
    3.7872   -3.9186   -3.7669 H   0  0  0  0  0  0  0  0  0  0  0  0
    1.8040    4.4035   -3.0764 H   0  0  0  0  0  0  0  0  0  0  0  0
    1.8775    4.0046   -4.7881 H   0  0  0  0  0  0  0  0  0  0  0  0
   -0.4920    4.3378   -5.1454 H   0  0  0  0  0  0  0  0  0  0  0  0
   -1.5609    4.0310   -2.9011 H   0  0  0  0  0  0  0  0  0  0  0  0
   -2.3678    5.1578   -4.9197 H   0  0  0  0  0  0  0  0  0  0  0  0
   -2.8053    6.2629   -3.5176 H   0  0  0  0  0  0  0  0  0  0  0  0
   -1.1802    7.1222   -5.6050 H   0  0  0  0  0  0  0  0  0  0  0  0
    0.8972    8.0201   -2.7345 H   0  0  0  0  0  0  0  0  0  0  0  0
   -1.9437   11.1141   -0.3023 H   0  0  0  0  0  0  0  0  0  0  0  0
   -2.9293   12.4256   -1.1273 H   0  0  0  0  0  0  0  0  0  0  0  0
   -5.3801    9.4507   -4.0161 H   0  0  0  0  0  0  0  0  0  0  0  0
    1.3198    5.6702    0.5406 H   0  0  0  0  0  0  0  0  0  0  0  0
    0.2734    5.0059    1.9073 H   0  0  0  0  0  0  0  0  0  0  0  0
    2.4629    3.5760    0.3219 H   0  0  0  0  0  0  0  0  0  0  0  0
    0.6412    2.8157    2.7068 H   0  0  0  0  0  0  0  0  0  0  0  0
    2.2485    1.3537    3.3292 H   0  0  0  0  0  0  0  0  0  0  0  0
    2.9618    1.1483    1.6214 H   0  0  0  0  0  0  0  0  0  0  0  0
    3.6144    3.0868    3.8019 H   0  0  0  0  0  0  0  0  0  0  0  0
    8.6219    2.9909   -0.5683 H   0  0  0  0  0  0  0  0  0  0  0  0
    9.3912    2.2188    0.8841 H   0  0  0  0  0  0  0  0  0  0  0  0
    7.1039    0.5306    1.3406 H   0  0  0  0  0  0  0  0  0  0  0  0
    4.8263    0.6767    2.3772 H   0  0  0  0  0  0  0  0  0  0  0  0
   -0.6364    0.4595   -1.3401 H   0  0  0  0  0  0  0  0  0  0  0  0
   -0.9947    2.1776   -1.4774 H   0  0  0  0  0  0  0  0  0  0  0  0
   -3.2172    1.8379   -2.1991 H   0  0  0  0  0  0  0  0  0  0  0  0
   -2.4567   -0.9790   -1.4324 H   0  0  0  0  0  0  0  0  0  0  0  0
   -4.7301   -1.0953   -1.3057 H   0  0  0  0  0  0  0  0  0  0  0  0
   -4.4028   -1.1140   -3.6167 H   0  0  0  0  0  0  0  0  0  0  0  0
   -2.7465   -1.8566   -3.5596 H   0  0  0  0  0  0  0  0  0  0  0  0
   -3.7228    0.8104   -4.6357 H   0  0  0  0  0  0  0  0  0  0  0  0
   -2.6089   -2.4889   -5.4837 H   0  0  0  0  0  0  0  0  0  0  0  0
    0.5423    3.9406   -7.5006 H   0  0  0  0  0  0  0  0  0  0  0  0
   -1.0394    4.2269   -8.2705 H   0  0  0  0  0  0  0  0  0  0  0  0
   -1.6619    2.3430   -5.8467 H   0  0  0  0  0  0  0  0  0  0  0  0
  1  2  1  0
  1121  1  0
  2  3  1  0
  2122  1  0
  2123  1  0
  3  4  1  0
  3  5  1  0
  3124  1  0
  4  8  1  0
  5  7  1  0
  5  6  1  0
  5125  1  0
  6 17  1  0
  7  8  1  0
  7126  1  0
  7127  1  0
  8  9  1  0
  8128  1  0
  9 16  1  0
  9 10  1  0
 10 12  1  0
 10 11  2  0
 12 13  2  0
 13 15  1  0
 13 14  1  0
 14129  1  0
 14130  1  0
 15 16  2  0
 15131  1  0
 16132  1  0
 17 20  1  0
 17 19  2  0
 17 18  1  0
 20 21  1  0
 21 22  1  0
 21133  1  0
 21134  1  0
 22 24  1  0
 22 23  1  0
 22135  1  0
 23 27  1  0
 24 25  1  0
 24 26  1  0
 24136  1  0
 25 39  1  0
 26 27  1  0
 26137  1  0
 26138  1  0
 27 28  1  0
 27139  1  0
 28 38  1  0
 28 29  1  0
 29 30  2  0
 29140  1  0
 30 31  1  0
 31 32  1  0
 31 38  2  0
 32 33  2  0
 32 34  1  0
 34 35  2  0
 35 36  1  0
 35 37  1  0
 36141  1  0
 36142  1  0
 37 38  1  0
 37143  1  0
 39 41  2  0
 39 42  1  0
 39 40  1  0
 42 43  1  0
 43 44  1  0
 43144  1  0
 43145  1  0
 44 46  1  0
 44 45  1  0
 44146  1  0
 45 49  1  0
 46 48  1  0
 46 47  1  0
 46147  1  0
 47 59  1  0
 48 49  1  0
 48148  1  0
 48149  1  0
 49 50  1  0
 49150  1  0
 50 51  1  0
 50 58  1  0
 51 53  1  0
 51 52  2  0
 53 54  1  0
 53151  1  0
 54 55  2  0
 54 56  1  0
 56 57  1  0
 56 58  2  0
 57152  1  0
 57153  1  0
 57154  1  0
 58155  1  0
 59 61  2  0
 59 62  1  0
 59 60  1  0
 62 63  1  0
 63 64  1  0
 63156  1  0
 63157  1  0
 64 66  1  0
 64 65  1  0
 64158  1  0
 65 69  1  0
 66 68  1  0
 66 67  1  0
 66159  1  0
 67 80  1  0
 68 69  1  0
 68160  1  0
 68161  1  0
 69 70  1  0
 69162  1  0
 70 79  1  0
 70 71  1  0
 71 72  2  0
 71163  1  0
 72 73  1  0
 73 79  2  0
 73 74  1  0
 74 76  2  0
 74 75  1  0
 75164  1  0
 75165  1  0
 76 77  1  0
 77 78  2  0
 77166  1  0
 78 79  1  0
 80 83  1  0
 80 82  2  0
 80 81  1  0
 83 84  1  0
 84 85  1  0
 84167  1  0
 84168  1  0
 85 87  1  0
 85 86  1  0
 85169  1  0
 86 90  1  0
 87 88  1  0
 87 89  1  0
 87170  1  0
 88 99  1  0
 89 90  1  0
 89171  1  0
 89172  1  0
 90 91  1  0
 90173  1  0
 91 98  1  0
 91 92  1  0
 92 93  2  0
 92 94  1  0
 94 95  2  0
 95 97  1  0
 95 96  1  0
 96174  1  0
 96175  1  0
 97 98  2  0
 97176  1  0
 98177  1  0
 99100  2  0
 99101  1  0
 99102  1  0
102103  1  0
103104  1  0
103178  1  0
103179  1  0
104105  1  0
104106  1  0
104180  1  0
105109  1  0
106108  1  0
106107  1  0
106181  1  0
107182  1  0
108109  1  0
108183  1  0
108184  1  0
109110  1  0
109185  1  0
110111  1  0
110120  1  0
111112  2  0
111186  1  0
112113  1  0
113114  1  0
113120  2  0
114115  2  0
114116  1  0
116117  2  0
117118  1  0
117119  1  0
118187  1  0
118188  1  0
119120  1  0
119189  1  0
M  CHG  5  18  -1  40  -1  60  -1  81  -1 101  -1
M  END
$$$$
DNA (5'-D(*CP*GP*TP*AP*CP*G)-3')
     RDKit          3D

189203  0  0  0  0  0  0  0  0999 V2000
   -3.1477   -0.8403   -2.4228 O   0  0  0  0  0  0  0  0  0  0  0  0
   -2.2320    0.1714   -2.2737 C   0  0  0  0  0  0  0  0  0  0  0  0
   -2.9066    1.5074   -2.4790 C   0  0  0  0  0  0  0  0  0  0  0  0
   -3.9361    1.7141   -1.5649 O   0  0  0  0  0  0  0  0  0  0  0  0
   -1.9728    2.6576   -2.1741 C   0  0  0  0  0  0  0  0  0  0  0  0
   -1.0885    2.2310   -1.1722 O   0  0  0  0  0  0  0  0  0  0  0  0
   -2.9442    3.7092   -1.6730 C   0  0  0  0  0  0  0  0  0  0  0  0
   -4.2832    3.0492   -1.9023 C   0  0  0  0  0  0  0  0  0  0  0  0
   -4.6777    3.0106   -3.2745 N   0  0  0  0  0  0  0  0  0  0  0  0
   -5.6910    2.1879   -3.6255 C   0  0  0  0  0  0  0  0  0  0  0  0
   -6.2850    1.4615   -2.7606 O   0  0  0  0  0  0  0  0  0  0  0  0
   -6.1410    2.0735   -4.8879 N   0  0  0  0  0  0  0  0  0  0  0  0
   -5.5811    2.7948   -5.8686 C   0  0  0  0  0  0  0  0  0  0  0  0
   -5.9813    2.7477   -7.2265 N   0  0  0  0  0  0  0  0  0  0  0  0
   -4.5299    3.6650   -5.5733 C   0  0  0  0  0  0  0  0  0  0  0  0
   -4.1222    3.7289   -4.2581 C   0  0  0  0  0  0  0  0  0  0  0  0
    0.5192    2.4017   -1.6837 P   0  0  0  0  0  0  0  0  0  0  0  0
    0.8668    4.0468   -1.9444 O   0  0  0  0  0  0  0  0  0  0  0  0
    0.7336    1.6895   -3.0088 O   0  0  0  0  0  0  0  0  0  0  0  0
    1.5885    1.8573   -0.4984 O   0  0  0  0  0  0  0  0  0  0  0  0
    1.4359    0.4905   -0.2649 C   0  0  0  0  0  0  0  0  0  0  0  0
    2.5330   -0.0481    0.6433 C   0  0  0  0  0  0  0  0  0  0  0  0
    3.7805    0.1564    0.1126 O   0  0  0  0  0  0  0  0  0  0  0  0
    2.3305   -1.5639    0.6737 C   0  0  0  0  0  0  0  0  0  0  0  0
    1.7368   -2.0760   -0.4277 O   0  0  0  0  0  0  0  0  0  0  0  0
    3.7446   -2.0223    0.9059 C   0  0  0  0  0  0  0  0  0  0  0  0
    4.6121   -0.9028    0.4218 C   0  0  0  0  0  0  0  0  0  0  0  0
    5.2935   -1.2537   -0.8319 N   0  0  0  0  0  0  0  0  0  0  0  0
    5.0066   -0.7714   -2.0785 C   0  0  0  0  0  0  0  0  0  0  0  0
    5.8531   -1.3289   -2.9746 N   0  0  0  0  0  0  0  0  0  0  0  0
    6.6650   -2.1544   -2.2986 C   0  0  0  0  0  0  0  0  0  0  0  0
    7.7113   -2.9752   -2.6999 C   0  0  0  0  0  0  0  0  0  0  0  0
    8.0119   -3.0008   -3.9295 O   0  0  0  0  0  0  0  0  0  0  0  0
    8.3418   -3.6925   -1.7647 N   0  0  0  0  0  0  0  0  0  0  0  0
    7.9912   -3.6406   -0.4521 C   0  0  0  0  0  0  0  0  0  0  0  0
    8.6776   -4.4149    0.5230 N   0  0  0  0  0  0  0  0  0  0  0  0
    6.9740   -2.8497   -0.0242 N   0  0  0  0  0  0  0  0  0  0  0  0
    6.3333   -2.1239   -0.9583 C   0  0  0  0  0  0  0  0  0  0  0  0
    0.3421   -2.9797   -0.2150 P   0  0  0  0  0  0  0  0  0  0  0  0
    0.4282   -4.0104    1.1392 O   0  0  0  0  0  0  0  0  0  0  0  0
   -0.7552   -1.9840    0.0952 O   0  0  0  0  0  0  0  0  0  0  0  0
   -0.1261   -3.7751   -1.6112 O   0  0  0  0  0  0  0  0  0  0  0  0
   -1.5248   -3.9843   -1.6889 C   0  0  0  0  0  0  0  0  0  0  0  0
   -1.8147   -4.2058   -3.1474 C   0  0  0  0  0  0  0  0  0  0  0  0
   -1.1133   -5.3242   -3.6572 O   0  0  0  0  0  0  0  0  0  0  0  0
   -3.2608   -4.5232   -3.4292 C   0  0  0  0  0  0  0  0  0  0  0  0
   -3.7773   -5.2802   -2.4068 O   0  0  0  0  0  0  0  0  0  0  0  0
   -3.0995   -5.3978   -4.6929 C   0  0  0  0  0  0  0  0  0  0  0  0
   -1.6372   -5.4266   -4.9719 C   0  0  0  0  0  0  0  0  0  0  0  0
   -1.1104   -4.3208   -5.7149 N   0  0  0  0  0  0  0  0  0  0  0  0
    0.2525   -4.2025   -5.7267 C   0  0  0  0  0  0  0  0  0  0  0  0
    0.9821   -5.0448   -5.1156 O   0  0  0  0  0  0  0  0  0  0  0  0
    0.8791   -3.2088   -6.3727 N   0  0  0  0  0  0  0  0  0  0  0  0
    0.1618   -2.2851   -7.0391 C   0  0  0  0  0  0  0  0  0  0  0  0
    0.8190   -1.3820   -7.6208 O   0  0  0  0  0  0  0  0  0  0  0  0
   -1.2111   -2.3650   -7.0548 C   0  0  0  0  0  0  0  0  0  0  0  0
   -1.9680   -1.3380   -7.7902 C   0  0  0  0  0  0  0  0  0  0  0  0
   -1.8209   -3.4034   -6.3773 C   0  0  0  0  0  0  0  0  0  0  0  0
   -5.2207   -4.7453   -1.7666 P   0  0  0  0  0  0  0  0  0  0  0  0
   -6.3997   -4.5956   -2.9652 O   0  0  0  0  0  0  0  0  0  0  0  0
   -5.6977   -5.7554   -0.7494 O   0  0  0  0  0  0  0  0  0  0  0  0
   -5.1159   -3.2506   -0.9854 O   0  0  0  0  0  0  0  0  0  0  0  0
   -6.3056   -2.9590   -0.3061 C   0  0  0  0  0  0  0  0  0  0  0  0
   -6.2521   -1.5570    0.1668 C   0  0  0  0  0  0  0  0  0  0  0  0
   -7.4307   -1.1775    0.8605 O   0  0  0  0  0  0  0  0  0  0  0  0
   -5.2276   -1.2365    1.2062 C   0  0  0  0  0  0  0  0  0  0  0  0
   -5.4492   -2.0551    2.3195 O   0  0  0  0  0  0  0  0  0  0  0  0
   -5.6805    0.2052    1.5667 C   0  0  0  0  0  0  0  0  0  0  0  0
   -7.1245    0.1579    1.1247 C   0  0  0  0  0  0  0  0  0  0  0  0
   -8.0057    0.7711    2.0917 N   0  0  0  0  0  0  0  0  0  0  0  0
   -8.8300    0.1824    2.9611 C   0  0  0  0  0  0  0  0  0  0  0  0
   -9.4535    1.1557    3.6597 N   0  0  0  0  0  0  0  0  0  0  0  0
   -9.0193    2.3458    3.2262 C   0  0  0  0  0  0  0  0  0  0  0  0
   -9.2871    3.6493    3.5521 C   0  0  0  0  0  0  0  0  0  0  0  0
  -10.2437    3.8779    4.5881 N   0  0  0  0  0  0  0  0  0  0  0  0
   -8.6867    4.6841    2.9376 N   0  0  0  0  0  0  0  0  0  0  0  0
   -7.7933    4.4629    1.9714 C   0  0  0  0  0  0  0  0  0  0  0  0
   -7.5186    3.1787    1.6383 N   0  0  0  0  0  0  0  0  0  0  0  0
   -8.0961    2.1189    2.2270 C   0  0  0  0  0  0  0  0  0  0  0  0
   -3.9692   -2.4661    3.0544 P   0  0  0  0  0  0  0  0  0  0  0  0
   -4.1948   -3.7835    4.1053 O   0  0  0  0  0  0  0  0  0  0  0  0
   -3.0280   -2.8994    1.9632 O   0  0  0  0  0  0  0  0  0  0  0  0
   -3.3273   -1.1412    3.8537 O   0  0  0  0  0  0  0  0  0  0  0  0
   -2.0549   -1.3834    4.3441 C   0  0  0  0  0  0  0  0  0  0  0  0
   -1.6601   -0.2440    5.2226 C   0  0  0  0  0  0  0  0  0  0  0  0
   -1.6570    0.9721    4.4994 O   0  0  0  0  0  0  0  0  0  0  0  0
   -0.2673   -0.2556    5.7493 C   0  0  0  0  0  0  0  0  0  0  0  0
    0.6634   -0.3301    4.7284 O   0  0  0  0  0  0  0  0  0  0  0  0
   -0.2064    1.1790    6.3338 C   0  0  0  0  0  0  0  0  0  0  0  0
   -1.0491    1.9068    5.3002 C   0  0  0  0  0  0  0  0  0  0  0  0
   -0.1504    2.7986    4.6071 N   0  0  0  0  0  0  0  0  0  0  0  0
    0.1847    3.9437    5.2626 C   0  0  0  0  0  0  0  0  0  0  0  0
   -0.2868    4.1814    6.4160 O   0  0  0  0  0  0  0  0  0  0  0  0
    1.0070    4.8613    4.7473 N   0  0  0  0  0  0  0  0  0  0  0  0
    1.5290    4.6479    3.5270 C   0  0  0  0  0  0  0  0  0  0  0  0
    2.4039    5.6523    3.0096 N   0  0  0  0  0  0  0  0  0  0  0  0
    1.2179    3.4998    2.8233 C   0  0  0  0  0  0  0  0  0  0  0  0
    0.3632    2.5803    3.3971 C   0  0  0  0  0  0  0  0  0  0  0  0
    1.9006   -1.4073    5.0473 P   0  0  0  0  0  0  0  0  0  0  0  0
    2.1990   -1.5401    6.5308 O   0  0  0  0  0  0  0  0  0  0  0  0
    1.5333   -2.9836    4.4985 O   0  0  0  0  0  0  0  0  0  0  0  0
    3.2926   -0.8938    4.2412 O   0  0  0  0  0  0  0  0  0  0  0  0
    4.4209   -0.8709    5.0269 C   0  0  0  0  0  0  0  0  0  0  0  0
    5.6900   -0.5206    4.2667 C   0  0  0  0  0  0  0  0  0  0  0  0
    5.6531    0.7141    3.6669 O   0  0  0  0  0  0  0  0  0  0  0  0
    6.7919   -0.4284    5.3174 C   0  0  0  0  0  0  0  0  0  0  0  0
    7.4278   -1.6270    5.5395 O   0  0  0  0  0  0  0  0  0  0  0  0
    7.6898    0.6636    4.7860 C   0  0  0  0  0  0  0  0  0  0  0  0
    6.9516    1.1886    3.5639 C   0  0  0  0  0  0  0  0  0  0  0  0
    7.6316    0.7958    2.3572 N   0  0  0  0  0  0  0  0  0  0  0  0
    8.5095   -0.1805    2.1265 C   0  0  0  0  0  0  0  0  0  0  0  0
    8.9057   -0.2059    0.8439 N   0  0  0  0  0  0  0  0  0  0  0  0
    8.2611    0.7926    0.2166 C   0  0  0  0  0  0  0  0  0  0  0  0
    8.3144    1.1980   -1.1092 C   0  0  0  0  0  0  0  0  0  0  0  0
    9.0517    0.6034   -1.9413 O   0  0  0  0  0  0  0  0  0  0  0  0
    7.5418    2.2503   -1.4467 N   0  0  0  0  0  0  0  0  0  0  0  0
    6.7664    2.8655   -0.5397 C   0  0  0  0  0  0  0  0  0  0  0  0
    5.9526    3.9754   -0.8893 N   0  0  0  0  0  0  0  0  0  0  0  0
    6.7148    2.4684    0.7558 N   0  0  0  0  0  0  0  0  0  0  0  0
    7.4648    1.4207    1.1564 C   0  0  0  0  0  0  0  0  0  0  0  0
   -3.2733   -1.0732   -3.3532 H   0  0  0  0  0  0  0  0  0  0  0  0
   -1.6595    0.1775   -1.3498 H   0  0  0  0  0  0  0  0  0  0  0  0
   -1.4942    0.0781   -3.1050 H   0  0  0  0  0  0  0  0  0  0  0  0
   -3.2858    1.5319   -3.5386 H   0  0  0  0  0  0  0  0  0  0  0  0
   -1.4231    3.0038   -3.0741 H   0  0  0  0  0  0  0  0  0  0  0  0
   -2.7856    3.7805   -0.5738 H   0  0  0  0  0  0  0  0  0  0  0  0
   -2.8180    4.6971   -2.0904 H   0  0  0  0  0  0  0  0  0  0  0  0
   -5.0655    3.3651   -1.1927 H   0  0  0  0  0  0  0  0  0  0  0  0
   -6.8739    3.1781   -7.5852 H   0  0  0  0  0  0  0  0  0  0  0  0
   -5.3240    2.2449   -7.8900 H   0  0  0  0  0  0  0  0  0  0  0  0
   -4.0620    4.2608   -6.3643 H   0  0  0  0  0  0  0  0  0  0  0  0
   -3.3147    4.3978   -4.0321 H   0  0  0  0  0  0  0  0  0  0  0  0
    0.4883    0.4219    0.3456 H   0  0  0  0  0  0  0  0  0  0  0  0
    1.2817   -0.1075   -1.1634 H   0  0  0  0  0  0  0  0  0  0  0  0
    2.4461    0.4134    1.6466 H   0  0  0  0  0  0  0  0  0  0  0  0
    1.7211   -1.7853    1.5671 H   0  0  0  0  0  0  0  0  0  0  0  0
    4.0158   -2.9198    0.3199 H   0  0  0  0  0  0  0  0  0  0  0  0
    3.8714   -2.2893    1.9656 H   0  0  0  0  0  0  0  0  0  0  0  0
    5.3395   -0.5502    1.1817 H   0  0  0  0  0  0  0  0  0  0  0  0
    4.2059   -0.0415   -2.2787 H   0  0  0  0  0  0  0  0  0  0  0  0
    9.7022   -4.2974    0.6329 H   0  0  0  0  0  0  0  0  0  0  0  0
    8.1828   -5.1130    1.1484 H   0  0  0  0  0  0  0  0  0  0  0  0
    6.7140   -2.8173    0.9848 H   0  0  0  0  0  0  0  0  0  0  0  0
   -2.0940   -3.1377   -1.2800 H   0  0  0  0  0  0  0  0  0  0  0  0
   -1.7130   -4.9331   -1.1170 H   0  0  0  0  0  0  0  0  0  0  0  0
   -1.4333   -3.3383   -3.7613 H   0  0  0  0  0  0  0  0  0  0  0  0
   -3.7973   -3.6111   -3.6822 H   0  0  0  0  0  0  0  0  0  0  0  0
   -3.3806   -6.4595   -4.4102 H   0  0  0  0  0  0  0  0  0  0  0  0
   -3.7110   -5.0614   -5.5205 H   0  0  0  0  0  0  0  0  0  0  0  0
   -1.3422   -6.4130   -5.3819 H   0  0  0  0  0  0  0  0  0  0  0  0
    1.9306   -3.1727   -6.3448 H   0  0  0  0  0  0  0  0  0  0  0  0
   -2.8714   -1.7918   -8.2175 H   0  0  0  0  0  0  0  0  0  0  0  0
   -1.3383   -0.8306   -8.5674 H   0  0  0  0  0  0  0  0  0  0  0  0
   -2.2290   -0.5147   -7.0662 H   0  0  0  0  0  0  0  0  0  0  0  0
   -2.8964   -3.4616   -6.3915 H   0  0  0  0  0  0  0  0  0  0  0  0
   -7.1672   -3.0774   -0.9750 H   0  0  0  0  0  0  0  0  0  0  0  0
   -6.4521   -3.6511    0.5558 H   0  0  0  0  0  0  0  0  0  0  0  0
   -6.1449   -0.8068   -0.6345 H   0  0  0  0  0  0  0  0  0  0  0  0
   -4.1818   -1.2070    0.8772 H   0  0  0  0  0  0  0  0  0  0  0  0
   -5.1623    0.8928    0.8758 H   0  0  0  0  0  0  0  0  0  0  0  0
   -5.5313    0.3932    2.6302 H   0  0  0  0  0  0  0  0  0  0  0  0
   -7.2827    0.6812    0.1342 H   0  0  0  0  0  0  0  0  0  0  0  0
   -8.9570   -0.9035    3.0692 H   0  0  0  0  0  0  0  0  0  0  0  0
  -10.0271    3.6365    5.5841 H   0  0  0  0  0  0  0  0  0  0  0  0
  -11.1809    4.2986    4.3230 H   0  0  0  0  0  0  0  0  0  0  0  0
   -7.3170    5.3053    1.4852 H   0  0  0  0  0  0  0  0  0  0  0  0
   -2.0127   -2.3096    4.9570 H   0  0  0  0  0  0  0  0  0  0  0  0
   -1.2961   -1.4767    3.5474 H   0  0  0  0  0  0  0  0  0  0  0  0
   -2.4102   -0.1817    6.0531 H   0  0  0  0  0  0  0  0  0  0  0  0
   -0.0526   -0.9692    6.5479 H   0  0  0  0  0  0  0  0  0  0  0  0
    0.8255    1.5428    6.3903 H   0  0  0  0  0  0  0  0  0  0  0  0
   -0.7186    1.1381    7.3027 H   0  0  0  0  0  0  0  0  0  0  0  0
   -1.8434    2.5217    5.7847 H   0  0  0  0  0  0  0  0  0  0  0  0
    2.0629    6.3121    2.2697 H   0  0  0  0  0  0  0  0  0  0  0  0
    3.3646    5.6888    3.3987 H   0  0  0  0  0  0  0  0  0  0  0  0
    1.6629    3.3823    1.8501 H   0  0  0  0  0  0  0  0  0  0  0  0
    0.1050    1.6826    2.8775 H   0  0  0  0  0  0  0  0  0  0  0  0
    4.2708   -0.0969    5.8319 H   0  0  0  0  0  0  0  0  0  0  0  0
    4.5973   -1.8270    5.5625 H   0  0  0  0  0  0  0  0  0  0  0  0
    5.8647   -1.3336    3.5424 H   0  0  0  0  0  0  0  0  0  0  0  0
    6.3400   -0.0846    6.2901 H   0  0  0  0  0  0  0  0  0  0  0  0
    8.1866   -1.8213    4.9408 H   0  0  0  0  0  0  0  0  0  0  0  0
    7.7943    1.4628    5.5614 H   0  0  0  0  0  0  0  0  0  0  0  0
    8.6770    0.2693    4.5313 H   0  0  0  0  0  0  0  0  0  0  0  0
    6.9203    2.3058    3.6691 H   0  0  0  0  0  0  0  0  0  0  0  0
    8.8701   -0.8734    2.8608 H   0  0  0  0  0  0  0  0  0  0  0  0
    5.9526    4.8852   -0.3824 H   0  0  0  0  0  0  0  0  0  0  0  0
    5.3214    3.8515   -1.7077 H   0  0  0  0  0  0  0  0  0  0  0  0
    6.1130    2.9499    1.4448 H   0  0  0  0  0  0  0  0  0  0  0  0
  1  2  1  0
  1121  1  0
  2  3  1  0
  2122  1  0
  2123  1  0
  3  4  1  0
  3  5  1  0
  3124  1  0
  4  8  1  0
  5  7  1  0
  5  6  1  0
  5125  1  0
  6 17  1  0
  7  8  1  0
  7126  1  0
  7127  1  0
  8  9  1  0
  8128  1  0
  9 16  1  0
  9 10  1  0
 10 12  1  0
 10 11  2  0
 12 13  2  0
 13 15  1  0
 13 14  1  0
 14129  1  0
 14130  1  0
 15 16  2  0
 15131  1  0
 16132  1  0
 17 20  1  0
 17 19  2  0
 17 18  1  0
 20 21  1  0
 21 22  1  0
 21133  1  0
 21134  1  0
 22 24  1  0
 22 23  1  0
 22135  1  0
 23 27  1  0
 24 25  1  0
 24 26  1  0
 24136  1  0
 25 39  1  0
 26 27  1  0
 26137  1  0
 26138  1  0
 27 28  1  0
 27139  1  0
 28 38  1  0
 28 29  1  0
 29 30  2  0
 29140  1  0
 30 31  1  0
 31 32  1  0
 31 38  2  0
 32 33  2  0
 32 34  1  0
 34 35  2  0
 35 36  1  0
 35 37  1  0
 36141  1  0
 36142  1  0
 37 38  1  0
 37143  1  0
 39 41  2  0
 39 42  1  0
 39 40  1  0
 42 43  1  0
 43 44  1  0
 43144  1  0
 43145  1  0
 44 46  1  0
 44 45  1  0
 44146  1  0
 45 49  1  0
 46 48  1  0
 46 47  1  0
 46147  1  0
 47 59  1  0
 48 49  1  0
 48148  1  0
 48149  1  0
 49 50  1  0
 49150  1  0
 50 51  1  0
 50 58  1  0
 51 53  1  0
 51 52  2  0
 53 54  1  0
 53151  1  0
 54 55  2  0
 54 56  1  0
 56 57  1  0
 56 58  2  0
 57152  1  0
 57153  1  0
 57154  1  0
 58155  1  0
 59 61  2  0
 59 62  1  0
 59 60  1  0
 62 63  1  0
 63 64  1  0
 63156  1  0
 63157  1  0
 64 66  1  0
 64 65  1  0
 64158  1  0
 65 69  1  0
 66 68  1  0
 66 67  1  0
 66159  1  0
 67 80  1  0
 68 69  1  0
 68160  1  0
 68161  1  0
 69 70  1  0
 69162  1  0
 70 79  1  0
 70 71  1  0
 71 72  2  0
 71163  1  0
 72 73  1  0
 73 79  2  0
 73 74  1  0
 74 76  2  0
 74 75  1  0
 75164  1  0
 75165  1  0
 76 77  1  0
 77 78  2  0
 77166  1  0
 78 79  1  0
 80 83  1  0
 80 82  2  0
 80 81  1  0
 83 84  1  0
 84 85  1  0
 84167  1  0
 84168  1  0
 85 87  1  0
 85 86  1  0
 85169  1  0
 86 90  1  0
 87 88  1  0
 87 89  1  0
 87170  1  0
 88 99  1  0
 89 90  1  0
 89171  1  0
 89172  1  0
 90 91  1  0
 90173  1  0
 91 98  1  0
 91 92  1  0
 92 93  2  0
 92 94  1  0
 94 95  2  0
 95 97  1  0
 95 96  1  0
 96174  1  0
 96175  1  0
 97 98  2  0
 97176  1  0
 98177  1  0
 99100  2  0
 99101  1  0
 99102  1  0
102103  1  0
103104  1  0
103178  1  0
103179  1  0
104105  1  0
104106  1  0
104180  1  0
105109  1  0
106108  1  0
106107  1  0
106181  1  0
107182  1  0
108109  1  0
108183  1  0
108184  1  0
109110  1  0
109185  1  0
110111  1  0
110120  1  0
111112  2  0
111186  1  0
112113  1  0
113114  1  0
113120  2  0
114115  2  0
114116  1  0
116117  2  0
117118  1  0
117119  1  0
118187  1  0
118188  1  0
119120  1  0
119189  1  0
M  CHG  5  18  -1  40  -1  60  -1  81  -1 101  -1
M  END
$$$$
DNA (5'-D(*CP*GP*TP*AP*CP*G)-3')
     RDKit          3D

189203  0  0  0  0  0  0  0  0999 V2000
   -2.3279    6.6351    2.9600 O   0  0  0  0  0  0  0  0  0  0  0  0
   -1.3235    6.2023    3.7904 C   0  0  0  0  0  0  0  0  0  0  0  0
   -0.1286    7.0981    3.8584 C   0  0  0  0  0  0  0  0  0  0  0  0
    0.8312    6.5809    4.7246 O   0  0  0  0  0  0  0  0  0  0  0  0
    0.5263    7.3920    2.5514 C   0  0  0  0  0  0  0  0  0  0  0  0
    0.2203    6.4301    1.6081 O   0  0  0  0  0  0  0  0  0  0  0  0
    2.0024    7.1488    2.9109 C   0  0  0  0  0  0  0  0  0  0  0  0
    1.7935    6.0124    3.9216 C   0  0  0  0  0  0  0  0  0  0  0  0
    3.0005    5.6994    4.6169 N   0  0  0  0  0  0  0  0  0  0  0  0
    3.9663    5.0401    3.9096 C   0  0  0  0  0  0  0  0  0  0  0  0
    3.7632    4.7390    2.7007 O   0  0  0  0  0  0  0  0  0  0  0  0
    5.1377    4.6911    4.4433 N   0  0  0  0  0  0  0  0  0  0  0  0
    5.3727    5.0046    5.7345 C   0  0  0  0  0  0  0  0  0  0  0  0
    6.6502    4.6043    6.2518 N   0  0  0  0  0  0  0  0  0  0  0  0
    4.4417    5.6709    6.5116 C   0  0  0  0  0  0  0  0  0  0  0  0
    3.2314    6.0137    5.9052 C   0  0  0  0  0  0  0  0  0  0  0  0
   -0.2135    7.0538    0.1060 P   0  0  0  0  0  0  0  0  0  0  0  0
    0.9925    8.0827   -0.5096 O   0  0  0  0  0  0  0  0  0  0  0  0
   -1.4747    7.8365    0.2428 O   0  0  0  0  0  0  0  0  0  0  0  0
   -0.3400    5.7754   -0.9923 O   0  0  0  0  0  0  0  0  0  0  0  0
    0.8542    5.5812   -1.7005 C   0  0  0  0  0  0  0  0  0  0  0  0
    0.7428    4.3908   -2.6313 C   0  0  0  0  0  0  0  0  0  0  0  0
    1.9000    4.1612   -3.3581 O   0  0  0  0  0  0  0  0  0  0  0  0
   -0.3594    4.5401   -3.6232 C   0  0  0  0  0  0  0  0  0  0  0  0
   -1.0101    3.3181   -3.7819 O   0  0  0  0  0  0  0  0  0  0  0  0
    0.3492    4.8606   -4.9151 C   0  0  0  0  0  0  0  0  0  0  0  0
    1.8239    4.9563   -4.4991 C   0  0  0  0  0  0  0  0  0  0  0  0
    2.7193    4.5268   -5.5291 N   0  0  0  0  0  0  0  0  0  0  0  0
    3.5887    5.2918   -6.2271 C   0  0  0  0  0  0  0  0  0  0  0  0
    4.2674    4.5467   -7.1141 N   0  0  0  0  0  0  0  0  0  0  0  0
    3.8493    3.2744   -7.0089 C   0  0  0  0  0  0  0  0  0  0  0  0
    4.1975    2.1016   -7.6650 C   0  0  0  0  0  0  0  0  0  0  0  0
    5.0777    2.1584   -8.5547 O   0  0  0  0  0  0  0  0  0  0  0  0
    3.5658    0.9764   -7.3020 N   0  0  0  0  0  0  0  0  0  0  0  0
    2.6295    0.9561   -6.3453 C   0  0  0  0  0  0  0  0  0  0  0  0
    1.9828   -0.2568   -5.9876 N   0  0  0  0  0  0  0  0  0  0  0  0
    2.2734    2.0973   -5.6890 N   0  0  0  0  0  0  0  0  0  0  0  0
    2.8804    3.2748   -6.0134 C   0  0  0  0  0  0  0  0  0  0  0  0
   -2.6670    3.4687   -3.4435 P   0  0  0  0  0  0  0  0  0  0  0  0
   -2.7701    4.0611   -1.8624 O   0  0  0  0  0  0  0  0  0  0  0  0
   -3.2823    4.5015   -4.3584 O   0  0  0  0  0  0  0  0  0  0  0  0
   -3.4446    1.9728   -3.6095 O   0  0  0  0  0  0  0  0  0  0  0  0
   -4.2894    1.9831   -4.6869 C   0  0  0  0  0  0  0  0  0  0  0  0
   -5.0992    0.7707   -4.9204 C   0  0  0  0  0  0  0  0  0  0  0  0
   -4.4085   -0.4052   -5.1349 O   0  0  0  0  0  0  0  0  0  0  0  0
   -6.0788    0.4355   -3.7864 C   0  0  0  0  0  0  0  0  0  0  0  0
   -5.3277    0.1699   -2.6714 O   0  0  0  0  0  0  0  0  0  0  0  0
   -6.5866   -0.8880   -4.4047 C   0  0  0  0  0  0  0  0  0  0  0  0
   -5.2993   -1.4516   -4.8848 C   0  0  0  0  0  0  0  0  0  0  0  0
   -4.6532   -2.3477   -3.9736 N   0  0  0  0  0  0  0  0  0  0  0  0
   -3.4197   -2.8026   -4.3286 C   0  0  0  0  0  0  0  0  0  0  0  0
   -2.8582   -2.4578   -5.3994 O   0  0  0  0  0  0  0  0  0  0  0  0
   -2.7267   -3.6568   -3.5415 N   0  0  0  0  0  0  0  0  0  0  0  0
   -3.1988   -4.1127   -2.3663 C   0  0  0  0  0  0  0  0  0  0  0  0
   -2.5817   -4.8988   -1.6224 O   0  0  0  0  0  0  0  0  0  0  0  0
   -4.4460   -3.6675   -1.9824 C   0  0  0  0  0  0  0  0  0  0  0  0
   -5.0725   -4.1122   -0.7001 C   0  0  0  0  0  0  0  0  0  0  0  0
   -5.1345   -2.7904   -2.8115 C   0  0  0  0  0  0  0  0  0  0  0  0
   -5.7889    0.9548   -1.2760 P   0  0  0  0  0  0  0  0  0  0  0  0
   -7.4664    1.0979   -1.1336 O   0  0  0  0  0  0  0  0  0  0  0  0
   -5.2088    2.3178   -1.0909 O   0  0  0  0  0  0  0  0  0  0  0  0
   -5.2506   -0.0138    0.0297 O   0  0  0  0  0  0  0  0  0  0  0  0
   -3.8628    0.0946    0.0842 C   0  0  0  0  0  0  0  0  0  0  0  0
   -3.2940   -0.8229    1.1140 C   0  0  0  0  0  0  0  0  0  0  0  0
   -3.7974   -0.5286    2.3829 O   0  0  0  0  0  0  0  0  0  0  0  0
   -1.7892   -0.7468    1.2496 C   0  0  0  0  0  0  0  0  0  0  0  0
   -1.3733    0.5447    1.0600 O   0  0  0  0  0  0  0  0  0  0  0  0
   -1.5520   -1.0656    2.7305 C   0  0  0  0  0  0  0  0  0  0  0  0
   -2.9479   -1.1945    3.2742 C   0  0  0  0  0  0  0  0  0  0  0  0
   -3.3084   -2.6004    3.3790 N   0  0  0  0  0  0  0  0  0  0  0  0
   -2.7247   -3.5736    2.6552 C   0  0  0  0  0  0  0  0  0  0  0  0
   -3.2833   -4.7734    2.9807 N   0  0  0  0  0  0  0  0  0  0  0  0
   -4.2130   -4.5425    3.9063 C   0  0  0  0  0  0  0  0  0  0  0  0
   -5.0655   -5.3891    4.5727 C   0  0  0  0  0  0  0  0  0  0  0  0
   -5.0075   -6.7790    4.2769 N   0  0  0  0  0  0  0  0  0  0  0  0
   -5.9037   -4.8490    5.4642 N   0  0  0  0  0  0  0  0  0  0  0  0
   -5.9116   -3.5058    5.7029 C   0  0  0  0  0  0  0  0  0  0  0  0
   -5.0866   -2.6628    5.0621 N   0  0  0  0  0  0  0  0  0  0  0  0
   -4.2316   -3.1877    4.1574 C   0  0  0  0  0  0  0  0  0  0  0  0
   -0.1492    0.7367   -0.0733 P   0  0  0  0  0  0  0  0  0  0  0  0
   -0.8457    1.1758   -1.5503 O   0  0  0  0  0  0  0  0  0  0  0  0
    0.7885    1.7972    0.4353 O   0  0  0  0  0  0  0  0  0  0  0  0
    0.7389   -0.6706   -0.3489 O   0  0  0  0  0  0  0  0  0  0  0  0
    2.0690   -0.3060   -0.5131 C   0  0  0  0  0  0  0  0  0  0  0  0
    2.9748   -1.4607   -0.8666 C   0  0  0  0  0  0  0  0  0  0  0  0
    2.5166   -1.9873   -2.0579 O   0  0  0  0  0  0  0  0  0  0  0  0
    4.3723   -0.8894   -1.1252 C   0  0  0  0  0  0  0  0  0  0  0  0
    4.4168    0.4352   -0.7513 O   0  0  0  0  0  0  0  0  0  0  0  0
    4.4185   -0.9863   -2.6186 C   0  0  0  0  0  0  0  0  0  0  0  0
    3.6185   -2.1788   -2.9022 C   0  0  0  0  0  0  0  0  0  0  0  0
    4.1197   -3.4651   -2.5861 N   0  0  0  0  0  0  0  0  0  0  0  0
    5.4026   -3.8128   -2.4475 C   0  0  0  0  0  0  0  0  0  0  0  0
    6.2705   -2.9373   -2.6054 O   0  0  0  0  0  0  0  0  0  0  0  0
    5.7994   -5.0784   -2.1423 N   0  0  0  0  0  0  0  0  0  0  0  0
    4.9206   -6.0676   -1.9591 C   0  0  0  0  0  0  0  0  0  0  0  0
    5.2601   -7.4021   -1.6415 N   0  0  0  0  0  0  0  0  0  0  0  0
    3.5795   -5.7462   -2.0945 C   0  0  0  0  0  0  0  0  0  0  0  0
    3.2058   -4.4689   -2.4012 C   0  0  0  0  0  0  0  0  0  0  0  0
    5.5838    0.7689    0.3937 P   0  0  0  0  0  0  0  0  0  0  0  0
    6.9416    1.0224   -0.1901 O   0  0  0  0  0  0  0  0  0  0  0  0
    5.1158    2.2264    1.1588 O   0  0  0  0  0  0  0  0  0  0  0  0
    5.5704   -0.4385    1.5696 O   0  0  0  0  0  0  0  0  0  0  0  0
    4.8534   -0.0328    2.7039 C   0  0  0  0  0  0  0  0  0  0  0  0
    4.9154   -1.1665    3.7194 C   0  0  0  0  0  0  0  0  0  0  0  0
    4.3648   -2.3260    3.2299 O   0  0  0  0  0  0  0  0  0  0  0  0
    4.2025   -0.7798    4.9828 C   0  0  0  0  0  0  0  0  0  0  0  0
    3.7364    0.5190    4.9483 O   0  0  0  0  0  0  0  0  0  0  0  0
    3.0208   -1.7247    5.0357 C   0  0  0  0  0  0  0  0  0  0  0  0
    3.0671   -2.4445    3.7215 C   0  0  0  0  0  0  0  0  0  0  0  0
    2.7473   -3.8474    3.8789 N   0  0  0  0  0  0  0  0  0  0  0  0
    3.0521   -4.6994    4.8639 C   0  0  0  0  0  0  0  0  0  0  0  0
    2.5536   -5.9260    4.6089 N   0  0  0  0  0  0  0  0  0  0  0  0
    1.9107   -5.8722    3.4335 C   0  0  0  0  0  0  0  0  0  0  0  0
    1.2092   -6.7435    2.6315 C   0  0  0  0  0  0  0  0  0  0  0  0
    1.0817   -7.9424    3.0230 O   0  0  0  0  0  0  0  0  0  0  0  0
    0.6699   -6.3335    1.4565 N   0  0  0  0  0  0  0  0  0  0  0  0
    0.7960   -5.0656    1.0259 C   0  0  0  0  0  0  0  0  0  0  0  0
    0.2438   -4.6039   -0.2017 N   0  0  0  0  0  0  0  0  0  0  0  0
    1.4779   -4.2194    1.8058 N   0  0  0  0  0  0  0  0  0  0  0  0
    2.0356   -4.5734    2.9842 C   0  0  0  0  0  0  0  0  0  0  0  0
   -2.8568    5.8488    2.6894 H   0  0  0  0  0  0  0  0  0  0  0  0
   -0.9731    5.1723    3.5786 H   0  0  0  0  0  0  0  0  0  0  0  0
   -1.7334    6.1367    4.8419 H   0  0  0  0  0  0  0  0  0  0  0  0
   -0.4499    8.0659    4.3432 H   0  0  0  0  0  0  0  0  0  0  0  0
    0.3946    8.4330    2.1843 H   0  0  0  0  0  0  0  0  0  0  0  0
    2.3308    8.0775    3.3934 H   0  0  0  0  0  0  0  0  0  0  0  0
    2.5807    6.8371    2.0367 H   0  0  0  0  0  0  0  0  0  0  0  0
    1.3536    5.1622    3.3531 H   0  0  0  0  0  0  0  0  0  0  0  0
    7.4605    5.2604    6.2846 H   0  0  0  0  0  0  0  0  0  0  0  0
    6.7119    3.6024    6.5952 H   0  0  0  0  0  0  0  0  0  0  0  0
    4.6631    5.9049    7.5392 H   0  0  0  0  0  0  0  0  0  0  0  0
    2.4732    6.5359    6.4749 H   0  0  0  0  0  0  0  0  0  0  0  0
    1.1727    6.4732   -2.2662 H   0  0  0  0  0  0  0  0  0  0  0  0
    1.6516    5.3383   -0.9646 H   0  0  0  0  0  0  0  0  0  0  0  0
    0.5929    3.4692   -1.9929 H   0  0  0  0  0  0  0  0  0  0  0  0
   -1.0827    5.3469   -3.3396 H   0  0  0  0  0  0  0  0  0  0  0  0
   -0.0284    5.8194   -5.3301 H   0  0  0  0  0  0  0  0  0  0  0  0
    0.3111    4.0369   -5.6523 H   0  0  0  0  0  0  0  0  0  0  0  0
    1.9958    6.0308   -4.2951 H   0  0  0  0  0  0  0  0  0  0  0  0
    3.7694    6.3681   -6.1376 H   0  0  0  0  0  0  0  0  0  0  0  0
    2.4348   -1.2017   -6.1479 H   0  0  0  0  0  0  0  0  0  0  0  0
    1.0320   -0.2317   -5.5516 H   0  0  0  0  0  0  0  0  0  0  0  0
    1.5420    2.0802   -4.9422 H   0  0  0  0  0  0  0  0  0  0  0  0
   -4.9868    2.8653   -4.5761 H   0  0  0  0  0  0  0  0  0  0  0  0
   -3.7433    2.2264   -5.6460 H   0  0  0  0  0  0  0  0  0  0  0  0
   -5.7645    0.8974   -5.8153 H   0  0  0  0  0  0  0  0  0  0  0  0
   -6.8859    1.1518   -3.6787 H   0  0  0  0  0  0  0  0  0  0  0  0
   -7.1486   -0.5478   -5.3238 H   0  0  0  0  0  0  0  0  0  0  0  0
   -7.1917   -1.4724   -3.7354 H   0  0  0  0  0  0  0  0  0  0  0  0
   -5.4114   -1.9975   -5.8609 H   0  0  0  0  0  0  0  0  0  0  0  0
   -1.7678   -4.0144   -3.8100 H   0  0  0  0  0  0  0  0  0  0  0  0
   -6.0606   -4.5517   -0.9855 H   0  0  0  0  0  0  0  0  0  0  0  0
   -5.2694   -3.2772   -0.0110 H   0  0  0  0  0  0  0  0  0  0  0  0
   -4.5047   -4.9533   -0.2590 H   0  0  0  0  0  0  0  0  0  0  0  0
   -6.1019   -2.4751   -2.4590 H   0  0  0  0  0  0  0  0  0  0  0  0
   -3.6264    1.1537    0.3810 H   0  0  0  0  0  0  0  0  0  0  0  0
   -3.4922   -0.1435   -0.9247 H   0  0  0  0  0  0  0  0  0  0  0  0
   -3.5412   -1.8577    0.8261 H   0  0  0  0  0  0  0  0  0  0  0  0
   -1.2774   -1.5013    0.6531 H   0  0  0  0  0  0  0  0  0  0  0  0
   -0.9383   -1.9860    2.8571 H   0  0  0  0  0  0  0  0  0  0  0  0
   -1.0038   -0.2631    3.2496 H   0  0  0  0  0  0  0  0  0  0  0  0
   -3.0070   -0.6859    4.2519 H   0  0  0  0  0  0  0  0  0  0  0  0
   -1.9441   -3.5072    1.9230 H   0  0  0  0  0  0  0  0  0  0  0  0
   -4.2612   -7.4105    4.6406 H   0  0  0  0  0  0  0  0  0  0  0  0
   -5.7774   -7.1603    3.6511 H   0  0  0  0  0  0  0  0  0  0  0  0
   -6.6223   -3.1586    6.4400 H   0  0  0  0  0  0  0  0  0  0  0  0
    2.3758    0.1737    0.4472 H   0  0  0  0  0  0  0  0  0  0  0  0
    2.1166    0.4893   -1.2807 H   0  0  0  0  0  0  0  0  0  0  0  0
    3.0835   -2.1745   -0.0534 H   0  0  0  0  0  0  0  0  0  0  0  0
    5.1420   -1.4476   -0.5853 H   0  0  0  0  0  0  0  0  0  0  0  0
    5.3788   -0.8431   -3.0966 H   0  0  0  0  0  0  0  0  0  0  0  0
    3.7952   -0.1106   -2.9786 H   0  0  0  0  0  0  0  0  0  0  0  0
    3.1963   -2.1311   -3.9366 H   0  0  0  0  0  0  0  0  0  0  0  0
    5.9373   -7.6896   -0.9124 H   0  0  0  0  0  0  0  0  0  0  0  0
    4.7971   -8.1693   -2.1785 H   0  0  0  0  0  0  0  0  0  0  0  0
    2.8024   -6.5026   -1.9596 H   0  0  0  0  0  0  0  0  0  0  0  0
    2.1308   -4.2468   -2.5010 H   0  0  0  0  0  0  0  0  0  0  0  0
    3.8214    0.2468    2.4643 H   0  0  0  0  0  0  0  0  0  0  0  0
    5.3388    0.8714    3.1214 H   0  0  0  0  0  0  0  0  0  0  0  0
    5.9716   -1.3639    3.9821 H   0  0  0  0  0  0  0  0  0  0  0  0
    4.8536   -0.8938    5.8954 H   0  0  0  0  0  0  0  0  0  0  0  0
    4.5208    1.1255    5.1307 H   0  0  0  0  0  0  0  0  0  0  0  0
    2.0599   -1.1538    5.1615 H   0  0  0  0  0  0  0  0  0  0  0  0
    3.1427   -2.3793    5.9157 H   0  0  0  0  0  0  0  0  0  0  0  0
    2.3395   -1.9717    3.0277 H   0  0  0  0  0  0  0  0  0  0  0  0
    3.6189   -4.4551    5.7503 H   0  0  0  0  0  0  0  0  0  0  0  0
    0.3471   -5.1922   -1.0792 H   0  0  0  0  0  0  0  0  0  0  0  0
   -0.2596   -3.6890   -0.2270 H   0  0  0  0  0  0  0  0  0  0  0  0
    1.5752   -3.2367    1.4729 H   0  0  0  0  0  0  0  0  0  0  0  0
  1  2  1  0
  1121  1  0
  2  3  1  0
  2122  1  0
  2123  1  0
  3  4  1  0
  3  5  1  0
  3124  1  0
  4  8  1  0
  5  7  1  0
  5  6  1  0
  5125  1  0
  6 17  1  0
  7  8  1  0
  7126  1  0
  7127  1  0
  8  9  1  0
  8128  1  0
  9 16  1  0
  9 10  1  0
 10 12  1  0
 10 11  2  0
 12 13  2  0
 13 15  1  0
 13 14  1  0
 14129  1  0
 14130  1  0
 15 16  2  0
 15131  1  0
 16132  1  0
 17 20  1  0
 17 19  2  0
 17 18  1  0
 20 21  1  0
 21 22  1  0
 21133  1  0
 21134  1  0
 22 24  1  0
 22 23  1  0
 22135  1  0
 23 27  1  0
 24 25  1  0
 24 26  1  0
 24136  1  0
 25 39  1  0
 26 27  1  0
 26137  1  0
 26138  1  0
 27 28  1  0
 27139  1  0
 28 38  1  0
 28 29  1  0
 29 30  2  0
 29140  1  0
 30 31  1  0
 31 32  1  0
 31 38  2  0
 32 33  2  0
 32 34  1  0
 34 35  2  0
 35 36  1  0
 35 37  1  0
 36141  1  0
 36142  1  0
 37 38  1  0
 37143  1  0
 39 41  2  0
 39 42  1  0
 39 40  1  0
 42 43  1  0
 43 44  1  0
 43144  1  0
 43145  1  0
 44 46  1  0
 44 45  1  0
 44146  1  0
 45 49  1  0
 46 48  1  0
 46 47  1  0
 46147  1  0
 47 59  1  0
 48 49  1  0
 48148  1  0
 48149  1  0
 49 50  1  0
 49150  1  0
 50 51  1  0
 50 58  1  0
 51 53  1  0
 51 52  2  0
 53 54  1  0
 53151  1  0
 54 55  2  0
 54 56  1  0
 56 57  1  0
 56 58  2  0
 57152  1  0
 57153  1  0
 57154  1  0
 58155  1  0
 59 61  2  0
 59 62  1  0
 59 60  1  0
 62 63  1  0
 63 64  1  0
 63156  1  0
 63157  1  0
 64 66  1  0
 64 65  1  0
 64158  1  0
 65 69  1  0
 66 68  1  0
 66 67  1  0
 66159  1  0
 67 80  1  0
 68 69  1  0
 68160  1  0
 68161  1  0
 69 70  1  0
 69162  1  0
 70 79  1  0
 70 71  1  0
 71 72  2  0
 71163  1  0
 72 73  1  0
 73 79  2  0
 73 74  1  0
 74 76  2  0
 74 75  1  0
 75164  1  0
 75165  1  0
 76 77  1  0
 77 78  2  0
 77166  1  0
 78 79  1  0
 80 83  1  0
 80 82  2  0
 80 81  1  0
 83 84  1  0
 84 85  1  0
 84167  1  0
 84168  1  0
 85 87  1  0
 85 86  1  0
 85169  1  0
 86 90  1  0
 87 88  1  0
 87 89  1  0
 87170  1  0
 88 99  1  0
 89 90  1  0
 89171  1  0
 89172  1  0
 90 91  1  0
 90173  1  0
 91 98  1  0
 91 92  1  0
 92 93  2  0
 92 94  1  0
 94 95  2  0
 95 97  1  0
 95 96  1  0
 96174  1  0
 96175  1  0
 97 98  2  0
 97176  1  0
 98177  1  0
 99100  2  0
 99101  1  0
 99102  1  0
102103  1  0
103104  1  0
103178  1  0
103179  1  0
104105  1  0
104106  1  0
104180  1  0
105109  1  0
106108  1  0
106107  1  0
106181  1  0
107182  1  0
108109  1  0
108183  1  0
108184  1  0
109110  1  0
109185  1  0
110111  1  0
110120  1  0
111112  2  0
111186  1  0
112113  1  0
113114  1  0
113120  2  0
114115  2  0
114116  1  0
116117  2  0
117118  1  0
117119  1  0
118187  1  0
118188  1  0
119120  1  0
119189  1  0
M  CHG  5  18  -1  40  -1  60  -1  81  -1 101  -1
M  END
$$$$
DNA (5'-D(*CP*GP*TP*AP*CP*G)-3')
     RDKit          3D

189203  0  0  0  0  0  0  0  0999 V2000
    4.8143    5.0091   -2.3825 O   0  0  0  0  0  0  0  0  0  0  0  0
    4.8654    5.3971   -3.7169 C   0  0  0  0  0  0  0  0  0  0  0  0
    3.4609    5.8416   -4.1605 C   0  0  0  0  0  0  0  0  0  0  0  0
    3.1263    6.8898   -3.3512 O   0  0  0  0  0  0  0  0  0  0  0  0
    2.4735    4.7271   -4.0227 C   0  0  0  0  0  0  0  0  0  0  0  0
    1.6117    4.5973   -5.0943 O   0  0  0  0  0  0  0  0  0  0  0  0
    1.6814    5.1671   -2.7868 C   0  0  0  0  0  0  0  0  0  0  0  0
    1.9249    6.6734   -2.7325 C   0  0  0  0  0  0  0  0  0  0  0  0
    0.8226    7.4248   -3.3100 N   0  0  0  0  0  0  0  0  0  0  0  0
   -0.3563    7.4398   -2.6597 C   0  0  0  0  0  0  0  0  0  0  0  0
   -0.5366    6.8161   -1.5626 O   0  0  0  0  0  0  0  0  0  0  0  0
   -1.4318    8.1150   -3.1227 N   0  0  0  0  0  0  0  0  0  0  0  0
   -1.3399    8.8026   -4.2748 C   0  0  0  0  0  0  0  0  0  0  0  0
   -2.4876    9.5005   -4.7375 N   0  0  0  0  0  0  0  0  0  0  0  0
   -0.1355    8.8101   -4.9762 C   0  0  0  0  0  0  0  0  0  0  0  0
    0.9616    8.1023   -4.4723 C   0  0  0  0  0  0  0  0  0  0  0  0
    1.5820    3.0809   -5.7924 P   0  0  0  0  0  0  0  0  0  0  0  0
    2.9956    2.8157   -6.6998 O   0  0  0  0  0  0  0  0  0  0  0  0
    0.4189    3.0079   -6.7699 O   0  0  0  0  0  0  0  0  0  0  0  0
    1.4441    1.8134   -4.7153 O   0  0  0  0  0  0  0  0  0  0  0  0
    0.3073    1.0185   -4.9609 C   0  0  0  0  0  0  0  0  0  0  0  0
    0.4054   -0.1736   -4.0059 C   0  0  0  0  0  0  0  0  0  0  0  0
    1.5401   -0.9094   -4.2135 O   0  0  0  0  0  0  0  0  0  0  0  0
   -0.7438   -1.1036   -4.0975 C   0  0  0  0  0  0  0  0  0  0  0  0
   -1.3319   -1.4668   -2.8991 O   0  0  0  0  0  0  0  0  0  0  0  0
   -0.2323   -2.3050   -4.8678 C   0  0  0  0  0  0  0  0  0  0  0  0
    1.2468   -2.1570   -4.6806 C   0  0  0  0  0  0  0  0  0  0  0  0
    2.0060   -2.5449   -5.8535 N   0  0  0  0  0  0  0  0  0  0  0  0
    1.7394   -2.1779   -7.1253 C   0  0  0  0  0  0  0  0  0  0  0  0
    2.6387   -2.7097   -7.9707 N   0  0  0  0  0  0  0  0  0  0  0  0
    3.4898   -3.4231   -7.2491 C   0  0  0  0  0  0  0  0  0  0  0  0
    4.6003   -4.1701   -7.6289 C   0  0  0  0  0  0  0  0  0  0  0  0
    4.9501   -4.2516   -8.8563 O   0  0  0  0  0  0  0  0  0  0  0  0
    5.2997   -4.8073   -6.6652 N   0  0  0  0  0  0  0  0  0  0  0  0
    4.9225   -4.7152   -5.3661 C   0  0  0  0  0  0  0  0  0  0  0  0
    5.7025   -5.4154   -4.3809 N   0  0  0  0  0  0  0  0  0  0  0  0
    3.8322   -3.9795   -5.0036 N   0  0  0  0  0  0  0  0  0  0  0  0
    3.1086   -3.3291   -5.9332 C   0  0  0  0  0  0  0  0  0  0  0  0
   -2.9763   -1.3337   -2.8597 P   0  0  0  0  0  0  0  0  0  0  0  0
   -3.7646   -2.8140   -2.6472 O   0  0  0  0  0  0  0  0  0  0  0  0
   -3.5626   -0.7213   -4.1240 O   0  0  0  0  0  0  0  0  0  0  0  0
   -3.4532   -0.3333   -1.6030 O   0  0  0  0  0  0  0  0  0  0  0  0
   -2.5220    0.6001   -1.2011 C   0  0  0  0  0  0  0  0  0  0  0  0
   -3.2909    1.6704   -0.4343 C   0  0  0  0  0  0  0  0  0  0  0  0
   -4.2186    2.1667   -1.3626 O   0  0  0  0  0  0  0  0  0  0  0  0
   -2.4698    2.8214    0.0308 C   0  0  0  0  0  0  0  0  0  0  0  0
   -1.1388    2.5987   -0.2254 O   0  0  0  0  0  0  0  0  0  0  0  0
   -3.0208    3.9680   -0.8276 C   0  0  0  0  0  0  0  0  0  0  0  0
   -3.5316    3.1556   -2.0132 C   0  0  0  0  0  0  0  0  0  0  0  0
   -4.3202    3.9710   -2.9052 N   0  0  0  0  0  0  0  0  0  0  0  0
   -3.6650    4.4997   -3.9781 C   0  0  0  0  0  0  0  0  0  0  0  0
   -2.4209    4.2609   -4.1647 O   0  0  0  0  0  0  0  0  0  0  0  0
   -4.2768    5.2847   -4.8811 N   0  0  0  0  0  0  0  0  0  0  0  0
   -5.5724    5.5434   -4.7014 C   0  0  0  0  0  0  0  0  0  0  0  0
   -6.1372    6.2884   -5.5651 O   0  0  0  0  0  0  0  0  0  0  0  0
   -6.2597    5.0198   -3.6205 C   0  0  0  0  0  0  0  0  0  0  0  0
   -7.6968    5.3549   -3.4830 C   0  0  0  0  0  0  0  0  0  0  0  0
   -5.6233    4.1993   -2.6777 C   0  0  0  0  0  0  0  0  0  0  0  0
   -0.1353    3.1223    1.0219 P   0  0  0  0  0  0  0  0  0  0  0  0
   -1.0359    3.8327    2.2732 O   0  0  0  0  0  0  0  0  0  0  0  0
    0.9451    4.0612    0.5343 O   0  0  0  0  0  0  0  0  0  0  0  0
    0.6287    1.7832    1.6930 O   0  0  0  0  0  0  0  0  0  0  0  0
    1.8568    1.6060    1.0048 C   0  0  0  0  0  0  0  0  0  0  0  0
    2.6930    0.7549    1.9235 C   0  0  0  0  0  0  0  0  0  0  0  0
    3.9409    0.4346    1.4469 O   0  0  0  0  0  0  0  0  0  0  0  0
    2.0896   -0.5586    2.2398 C   0  0  0  0  0  0  0  0  0  0  0  0
    2.1817   -0.9969    3.5107 O   0  0  0  0  0  0  0  0  0  0  0  0
    2.5724   -1.4218    1.1338 C   0  0  0  0  0  0  0  0  0  0  0  0
    3.9390   -0.8130    0.8947 C   0  0  0  0  0  0  0  0  0  0  0  0
    4.2570   -0.6885   -0.5106 N   0  0  0  0  0  0  0  0  0  0  0  0
    3.4606   -0.5665   -1.5807 C   0  0  0  0  0  0  0  0  0  0  0  0
    4.2267   -0.4765   -2.7029 N   0  0  0  0  0  0  0  0  0  0  0  0
    5.4988   -0.5419   -2.3444 C   0  0  0  0  0  0  0  0  0  0  0  0
    6.6985   -0.5045   -3.0178 C   0  0  0  0  0  0  0  0  0  0  0  0
    6.7430   -0.3640   -4.4337 N   0  0  0  0  0  0  0  0  0  0  0  0
    7.8639   -0.5929   -2.3664 N   0  0  0  0  0  0  0  0  0  0  0  0
    7.8818   -0.7230   -1.0137 C   0  0  0  0  0  0  0  0  0  0  0  0
    6.7207   -0.7622   -0.3349 N   0  0  0  0  0  0  0  0  0  0  0  0
    5.5428   -0.6765   -0.9581 C   0  0  0  0  0  0  0  0  0  0  0  0
    0.8328   -1.0163    4.4509 P   0  0  0  0  0  0  0  0  0  0  0  0
    0.4482    0.4437    5.1841 O   0  0  0  0  0  0  0  0  0  0  0  0
   -0.3510   -1.4347    3.6145 O   0  0  0  0  0  0  0  0  0  0  0  0
    1.0102   -2.1480    5.6941 O   0  0  0  0  0  0  0  0  0  0  0  0
    2.2224   -2.8390    5.6201 C   0  0  0  0  0  0  0  0  0  0  0  0
    2.5415   -3.5300    6.9292 C   0  0  0  0  0  0  0  0  0  0  0  0
    2.6412   -2.5974    7.9584 O   0  0  0  0  0  0  0  0  0  0  0  0
    1.5727   -4.5751    7.3395 C   0  0  0  0  0  0  0  0  0  0  0  0
    2.1737   -5.8151    7.5683 O   0  0  0  0  0  0  0  0  0  0  0  0
    0.9944   -4.0254    8.6472 C   0  0  0  0  0  0  0  0  0  0  0  0
    1.4045   -2.5956    8.5935 C   0  0  0  0  0  0  0  0  0  0  0  0
    1.5216   -1.9343    9.8591 N   0  0  0  0  0  0  0  0  0  0  0  0
    0.8938   -2.2934   10.9882 C   0  0  0  0  0  0  0  0  0  0  0  0
    0.1272   -3.3116   10.9407 O   0  0  0  0  0  0  0  0  0  0  0  0
    1.0622   -1.6021   12.1521 N   0  0  0  0  0  0  0  0  0  0  0  0
    1.8683   -0.5207   12.2263 C   0  0  0  0  0  0  0  0  0  0  0  0
    2.0642    0.2230   13.4233 N   0  0  0  0  0  0  0  0  0  0  0  0
    2.5333   -0.1253   11.0667 C   0  0  0  0  0  0  0  0  0  0  0  0
    2.3421   -0.8465    9.9065 C   0  0  0  0  0  0  0  0  0  0  0  0
    1.4227   -7.0836    6.7591 P   0  0  0  0  0  0  0  0  0  0  0  0
    2.4175   -7.6699    5.7738 O   0  0  0  0  0  0  0  0  0  0  0  0
    1.0869   -8.2757    7.9429 O   0  0  0  0  0  0  0  0  0  0  0  0
    0.0369   -6.6525    5.9322 O   0  0  0  0  0  0  0  0  0  0  0  0
    0.0925   -6.9597    4.5847 C   0  0  0  0  0  0  0  0  0  0  0  0
   -1.2392   -6.9783    3.8928 C   0  0  0  0  0  0  0  0  0  0  0  0
   -1.8470   -5.7285    4.0035 O   0  0  0  0  0  0  0  0  0  0  0  0
   -1.0543   -7.2072    2.4035 C   0  0  0  0  0  0  0  0  0  0  0  0
    0.2777   -7.0690    2.0171 O   0  0  0  0  0  0  0  0  0  0  0  0
   -1.9249   -6.1263    1.7931 C   0  0  0  0  0  0  0  0  0  0  0  0
   -2.7588   -5.6683    2.9459 C   0  0  0  0  0  0  0  0  0  0  0  0
   -3.2276   -4.3223    2.8084 N   0  0  0  0  0  0  0  0  0  0  0  0
   -2.5913   -3.3114    2.2211 C   0  0  0  0  0  0  0  0  0  0  0  0
   -3.3340   -2.2064    2.2840 N   0  0  0  0  0  0  0  0  0  0  0  0
   -4.4743   -2.4990    2.9227 C   0  0  0  0  0  0  0  0  0  0  0  0
   -5.5623   -1.7137    3.2425 C   0  0  0  0  0  0  0  0  0  0  0  0
   -5.5619   -0.4921    2.9101 O   0  0  0  0  0  0  0  0  0  0  0  0
   -6.5803   -2.2954    3.8994 N   0  0  0  0  0  0  0  0  0  0  0  0
   -6.5110   -3.6150    4.2241 C   0  0  0  0  0  0  0  0  0  0  0  0
   -7.6250   -4.1492    4.9099 N   0  0  0  0  0  0  0  0  0  0  0  0
   -5.4521   -4.3783    3.9131 N   0  0  0  0  0  0  0  0  0  0  0  0
   -4.3974   -3.8427    3.2509 C   0  0  0  0  0  0  0  0  0  0  0  0
    4.8267    5.8335   -1.8215 H   0  0  0  0  0  0  0  0  0  0  0  0
    5.2913    4.6407   -4.3919 H   0  0  0  0  0  0  0  0  0  0  0  0
    5.4976    6.3209   -3.8031 H   0  0  0  0  0  0  0  0  0  0  0  0
    3.5279    6.1138   -5.2382 H   0  0  0  0  0  0  0  0  0  0  0  0
    2.9832    3.7415   -3.8178 H   0  0  0  0  0  0  0  0  0  0  0  0
    0.6185    5.0190   -2.9899 H   0  0  0  0  0  0  0  0  0  0  0  0
    2.0818    4.6785   -1.8926 H   0  0  0  0  0  0  0  0  0  0  0  0
    1.9956    7.0193   -1.6689 H   0  0  0  0  0  0  0  0  0  0  0  0
   -2.8127    9.4257   -5.7421 H   0  0  0  0  0  0  0  0  0  0  0  0
   -3.0702   10.1194   -4.1137 H   0  0  0  0  0  0  0  0  0  0  0  0
   -0.0623    9.3683   -5.9084 H   0  0  0  0  0  0  0  0  0  0  0  0
    1.9106    8.0913   -4.9958 H   0  0  0  0  0  0  0  0  0  0  0  0
   -0.5696    1.6107   -4.6280 H   0  0  0  0  0  0  0  0  0  0  0  0
    0.2335    0.7197   -6.0127 H   0  0  0  0  0  0  0  0  0  0  0  0
    0.4008    0.3160   -2.9869 H   0  0  0  0  0  0  0  0  0  0  0  0
   -1.5386   -0.6515   -4.7228 H   0  0  0  0  0  0  0  0  0  0  0  0
   -0.6162   -3.2658   -4.4696 H   0  0  0  0  0  0  0  0  0  0  0  0
   -0.5589   -2.2651   -5.9304 H   0  0  0  0  0  0  0  0  0  0  0  0
    1.5488   -2.8954   -3.8788 H   0  0  0  0  0  0  0  0  0  0  0  0
    0.9235   -1.5473   -7.4383 H   0  0  0  0  0  0  0  0  0  0  0  0
    6.0594   -4.8114   -3.5801 H   0  0  0  0  0  0  0  0  0  0  0  0
    5.9056   -6.4337   -4.4418 H   0  0  0  0  0  0  0  0  0  0  0  0
    3.5529   -3.9131   -4.0118 H   0  0  0  0  0  0  0  0  0  0  0  0
   -1.8582    0.9819   -1.9699 H   0  0  0  0  0  0  0  0  0  0  0  0
   -1.8818    0.0825   -0.4252 H   0  0  0  0  0  0  0  0  0  0  0  0
   -3.8214    1.1744    0.4191 H   0  0  0  0  0  0  0  0  0  0  0  0
   -2.6229    3.0973    1.1170 H   0  0  0  0  0  0  0  0  0  0  0  0
   -3.8632    4.4019   -0.2351 H   0  0  0  0  0  0  0  0  0  0  0  0
   -2.2788    4.7155   -1.0830 H   0  0  0  0  0  0  0  0  0  0  0  0
   -2.6395    2.7567   -2.5021 H   0  0  0  0  0  0  0  0  0  0  0  0
   -3.7315    5.6604   -5.6811 H   0  0  0  0  0  0  0  0  0  0  0  0
   -8.1820    5.4438   -4.4829 H   0  0  0  0  0  0  0  0  0  0  0  0
   -8.2278    4.5717   -2.9334 H   0  0  0  0  0  0  0  0  0  0  0  0
   -7.8279    6.3676   -3.0001 H   0  0  0  0  0  0  0  0  0  0  0  0
   -6.1448    3.7826   -1.8355 H   0  0  0  0  0  0  0  0  0  0  0  0
    1.6912    1.1197    0.0477 H   0  0  0  0  0  0  0  0  0  0  0  0
    2.2820    2.6202    0.8935 H   0  0  0  0  0  0  0  0  0  0  0  0
    2.8911    1.3859    2.8310 H   0  0  0  0  0  0  0  0  0  0  0  0
    0.9739   -0.4066    2.0668 H   0  0  0  0  0  0  0  0  0  0  0  0
    1.9373   -1.2992    0.2289 H   0  0  0  0  0  0  0  0  0  0  0  0
    2.7331   -2.4880    1.3895 H   0  0  0  0  0  0  0  0  0  0  0  0
    4.7324   -1.4125    1.4068 H   0  0  0  0  0  0  0  0  0  0  0  0
    2.3973   -0.5378   -1.5914 H   0  0  0  0  0  0  0  0  0  0  0  0
    6.5116   -1.2046   -5.0281 H   0  0  0  0  0  0  0  0  0  0  0  0
    6.9979    0.5597   -4.8455 H   0  0  0  0  0  0  0  0  0  0  0  0
    8.8041   -0.7983   -0.4590 H   0  0  0  0  0  0  0  0  0  0  0  0
    2.9976   -2.0599    5.4780 H   0  0  0  0  0  0  0  0  0  0  0  0
    2.2734   -3.5071    4.7566 H   0  0  0  0  0  0  0  0  0  0  0  0
    3.5451   -3.9876    6.8146 H   0  0  0  0  0  0  0  0  0  0  0  0
    0.7432   -4.6574    6.6239 H   0  0  0  0  0  0  0  0  0  0  0  0
   -0.1034   -4.1824    8.6420 H   0  0  0  0  0  0  0  0  0  0  0  0
    1.4917   -4.5930    9.4699 H   0  0  0  0  0  0  0  0  0  0  0  0
    0.6555   -2.0304    7.9996 H   0  0  0  0  0  0  0  0  0  0  0  0
    1.2524    0.4564   14.0708 H   0  0  0  0  0  0  0  0  0  0  0  0
    3.0193    0.5756   13.7250 H   0  0  0  0  0  0  0  0  0  0  0  0
    3.1714    0.7388   11.1415 H   0  0  0  0  0  0  0  0  0  0  0  0
    2.8797   -0.5011    9.0183 H   0  0  0  0  0  0  0  0  0  0  0  0
    0.7318   -6.1969    4.1042 H   0  0  0  0  0  0  0  0  0  0  0  0
    0.6000   -7.9479    4.4188 H   0  0  0  0  0  0  0  0  0  0  0  0
   -1.8859   -7.7948    4.2693 H   0  0  0  0  0  0  0  0  0  0  0  0
   -1.4637   -8.1838    2.0775 H   0  0  0  0  0  0  0  0  0  0  0  0
    0.3761   -6.1433    1.6658 H   0  0  0  0  0  0  0  0  0  0  0  0
   -2.5850   -6.5402    0.9849 H   0  0  0  0  0  0  0  0  0  0  0  0
   -1.2474   -5.3404    1.3804 H   0  0  0  0  0  0  0  0  0  0  0  0
   -3.6050   -6.3812    3.0552 H   0  0  0  0  0  0  0  0  0  0  0  0
   -1.6110   -3.3280    1.7450 H   0  0  0  0  0  0  0  0  0  0  0  0
   -7.5710   -4.7805    5.7363 H   0  0  0  0  0  0  0  0  0  0  0  0
   -8.5920   -3.9059    4.5786 H   0  0  0  0  0  0  0  0  0  0  0  0
   -5.4307   -5.3742    4.1732 H   0  0  0  0  0  0  0  0  0  0  0  0
  1  2  1  0
  1121  1  0
  2  3  1  0
  2122  1  0
  2123  1  0
  3  4  1  0
  3  5  1  0
  3124  1  0
  4  8  1  0
  5  7  1  0
  5  6  1  0
  5125  1  0
  6 17  1  0
  7  8  1  0
  7126  1  0
  7127  1  0
  8  9  1  0
  8128  1  0
  9 16  1  0
  9 10  1  0
 10 12  1  0
 10 11  2  0
 12 13  2  0
 13 15  1  0
 13 14  1  0
 14129  1  0
 14130  1  0
 15 16  2  0
 15131  1  0
 16132  1  0
 17 20  1  0
 17 19  2  0
 17 18  1  0
 20 21  1  0
 21 22  1  0
 21133  1  0
 21134  1  0
 22 24  1  0
 22 23  1  0
 22135  1  0
 23 27  1  0
 24 25  1  0
 24 26  1  0
 24136  1  0
 25 39  1  0
 26 27  1  0
 26137  1  0
 26138  1  0
 27 28  1  0
 27139  1  0
 28 38  1  0
 28 29  1  0
 29 30  2  0
 29140  1  0
 30 31  1  0
 31 32  1  0
 31 38  2  0
 32 33  2  0
 32 34  1  0
 34 35  2  0
 35 36  1  0
 35 37  1  0
 36141  1  0
 36142  1  0
 37 38  1  0
 37143  1  0
 39 41  2  0
 39 42  1  0
 39 40  1  0
 42 43  1  0
 43 44  1  0
 43144  1  0
 43145  1  0
 44 46  1  0
 44 45  1  0
 44146  1  0
 45 49  1  0
 46 48  1  0
 46 47  1  0
 46147  1  0
 47 59  1  0
 48 49  1  0
 48148  1  0
 48149  1  0
 49 50  1  0
 49150  1  0
 50 51  1  0
 50 58  1  0
 51 53  1  0
 51 52  2  0
 53 54  1  0
 53151  1  0
 54 55  2  0
 54 56  1  0
 56 57  1  0
 56 58  2  0
 57152  1  0
 57153  1  0
 57154  1  0
 58155  1  0
 59 61  2  0
 59 62  1  0
 59 60  1  0
 62 63  1  0
 63 64  1  0
 63156  1  0
 63157  1  0
 64 66  1  0
 64 65  1  0
 64158  1  0
 65 69  1  0
 66 68  1  0
 66 67  1  0
 66159  1  0
 67 80  1  0
 68 69  1  0
 68160  1  0
 68161  1  0
 69 70  1  0
 69162  1  0
 70 79  1  0
 70 71  1  0
 71 72  2  0
 71163  1  0
 72 73  1  0
 73 79  2  0
 73 74  1  0
 74 76  2  0
 74 75  1  0
 75164  1  0
 75165  1  0
 76 77  1  0
 77 78  2  0
 77166  1  0
 78 79  1  0
 80 83  1  0
 80 82  2  0
 80 81  1  0
 83 84  1  0
 84 85  1  0
 84167  1  0
 84168  1  0
 85 87  1  0
 85 86  1  0
 85169  1  0
 86 90  1  0
 87 88  1  0
 87 89  1  0
 87170  1  0
 88 99  1  0
 89 90  1  0
 89171  1  0
 89172  1  0
 90 91  1  0
 90173  1  0
 91 98  1  0
 91 92  1  0
 92 93  2  0
 92 94  1  0
 94 95  2  0
 95 97  1  0
 95 96  1  0
 96174  1  0
 96175  1  0
 97 98  2  0
 97176  1  0
 98177  1  0
 99100  2  0
 99101  1  0
 99102  1  0
102103  1  0
103104  1  0
103178  1  0
103179  1  0
104105  1  0
104106  1  0
104180  1  0
105109  1  0
106108  1  0
106107  1  0
106181  1  0
107182  1  0
108109  1  0
108183  1  0
108184  1  0
109110  1  0
109185  1  0
110111  1  0
110120  1  0
111112  2  0
111186  1  0
112113  1  0
113114  1  0
113120  2  0
114115  2  0
114116  1  0
116117  2  0
117118  1  0
117119  1  0
118187  1  0
118188  1  0
119120  1  0
119189  1  0
M  CHG  5  18  -1  40  -1  60  -1  81  -1 101  -1
M  END
$$$$
DNA (5'-D(*CP*GP*TP*AP*CP*G)-3')
     RDKit          3D

189203  0  0  0  0  0  0  0  0999 V2000
   -0.5931    2.9095    1.9511 O   0  0  0  0  0  0  0  0  0  0  0  0
   -1.5543    2.6690    2.9487 C   0  0  0  0  0  0  0  0  0  0  0  0
   -2.5817    1.6493    2.4468 C   0  0  0  0  0  0  0  0  0  0  0  0
   -3.1587    2.1980    1.3363 O   0  0  0  0  0  0  0  0  0  0  0  0
   -1.8357    0.4060    2.0184 C   0  0  0  0  0  0  0  0  0  0  0  0
   -2.7158   -0.6574    2.1924 O   0  0  0  0  0  0  0  0  0  0  0  0
   -1.6306    0.6777    0.5208 C   0  0  0  0  0  0  0  0  0  0  0  0
   -2.8994    1.4417    0.2255 C   0  0  0  0  0  0  0  0  0  0  0  0
   -2.7890    2.2938   -0.9464 N   0  0  0  0  0  0  0  0  0  0  0  0
   -3.3153    3.5294   -0.9282 C   0  0  0  0  0  0  0  0  0  0  0  0
   -3.9065    3.9483    0.1112 O   0  0  0  0  0  0  0  0  0  0  0  0
   -3.2404    4.3690   -1.9986 N   0  0  0  0  0  0  0  0  0  0  0  0
   -2.6295    3.9909   -3.1297 C   0  0  0  0  0  0  0  0  0  0  0  0
   -2.5476    4.8614   -4.2507 N   0  0  0  0  0  0  0  0  0  0  0  0
   -2.0831    2.7259   -3.1667 C   0  0  0  0  0  0  0  0  0  0  0  0
   -2.1683    1.8920   -2.0771 C   0  0  0  0  0  0  0  0  0  0  0  0
   -2.1500   -1.8832    3.1648 P   0  0  0  0  0  0  0  0  0  0  0  0
   -2.8410   -1.8112    4.7125 O   0  0  0  0  0  0  0  0  0  0  0  0
   -2.6524   -3.1982    2.5594 O   0  0  0  0  0  0  0  0  0  0  0  0
   -0.4582   -1.8783    3.2251 O   0  0  0  0  0  0  0  0  0  0  0  0
    0.0050   -2.9082    4.0073 C   0  0  0  0  0  0  0  0  0  0  0  0
    1.4932   -2.9779    4.0899 C   0  0  0  0  0  0  0  0  0  0  0  0
    1.9209   -4.0311    4.8864 O   0  0  0  0  0  0  0  0  0  0  0  0
    2.1131   -1.7215    4.7022 C   0  0  0  0  0  0  0  0  0  0  0  0
    3.4408   -1.7456    4.3648 O   0  0  0  0  0  0  0  0  0  0  0  0
    2.0573   -2.1763    6.1767 C   0  0  0  0  0  0  0  0  0  0  0  0
    2.6446   -3.5696    5.9413 C   0  0  0  0  0  0  0  0  0  0  0  0
    2.5779   -4.3662    7.1277 N   0  0  0  0  0  0  0  0  0  0  0  0
    1.4867   -4.7777    7.7971 C   0  0  0  0  0  0  0  0  0  0  0  0
    1.8538   -5.5178    8.8776 N   0  0  0  0  0  0  0  0  0  0  0  0
    3.1998   -5.5806    8.8999 C   0  0  0  0  0  0  0  0  0  0  0  0
    4.1413   -6.1670    9.7222 C   0  0  0  0  0  0  0  0  0  0  0  0
    3.7470   -6.8328   10.7332 O   0  0  0  0  0  0  0  0  0  0  0  0
    5.4614   -6.0252    9.4416 N   0  0  0  0  0  0  0  0  0  0  0  0
    5.8916   -5.3302    8.3855 C   0  0  0  0  0  0  0  0  0  0  0  0
    7.2645   -5.1548    8.0532 N   0  0  0  0  0  0  0  0  0  0  0  0
    4.9737   -4.7623    7.5895 N   0  0  0  0  0  0  0  0  0  0  0  0
    3.6398   -4.8713    7.8221 C   0  0  0  0  0  0  0  0  0  0  0  0
    4.0791   -0.3471    3.7460 P   0  0  0  0  0  0  0  0  0  0  0  0
    5.6579   -0.7063    3.1982 O   0  0  0  0  0  0  0  0  0  0  0  0
    4.2459    0.7451    4.7734 O   0  0  0  0  0  0  0  0  0  0  0  0
    3.1727    0.2897    2.4874 O   0  0  0  0  0  0  0  0  0  0  0  0
    4.1045    0.8895    1.6114 C   0  0  0  0  0  0  0  0  0  0  0  0
    3.2585    1.6339    0.5676 C   0  0  0  0  0  0  0  0  0  0  0  0
    2.5173    2.5509    1.2997 O   0  0  0  0  0  0  0  0  0  0  0  0
    4.2212    2.3958   -0.2769 C   0  0  0  0  0  0  0  0  0  0  0  0
    5.3641    1.6693   -0.4936 O   0  0  0  0  0  0  0  0  0  0  0  0
    4.4874    3.6056    0.6330 C   0  0  0  0  0  0  0  0  0  0  0  0
    3.1534    3.7571    1.2975 C   0  0  0  0  0  0  0  0  0  0  0  0
    3.3648    4.3136    2.6117 N   0  0  0  0  0  0  0  0  0  0  0  0
    2.7783    3.8644    3.7302 C   0  0  0  0  0  0  0  0  0  0  0  0
    1.9856    2.8931    3.6591 O   0  0  0  0  0  0  0  0  0  0  0  0
    2.9834    4.3926    4.9501 N   0  0  0  0  0  0  0  0  0  0  0  0
    3.8296    5.4359    5.0524 C   0  0  0  0  0  0  0  0  0  0  0  0
    4.0062    5.9134    6.2048 O   0  0  0  0  0  0  0  0  0  0  0  0
    4.4668    5.9493    3.9488 C   0  0  0  0  0  0  0  0  0  0  0  0
    5.3899    7.0922    4.0787 C   0  0  0  0  0  0  0  0  0  0  0  0
    4.2104    5.3612    2.7367 C   0  0  0  0  0  0  0  0  0  0  0  0
    5.7563    1.5687   -2.1160 P   0  0  0  0  0  0  0  0  0  0  0  0
    5.6853    3.1667   -2.7245 O   0  0  0  0  0  0  0  0  0  0  0  0
    7.1906    1.1268   -2.3306 O   0  0  0  0  0  0  0  0  0  0  0  0
    4.7527    0.5306   -2.9959 O   0  0  0  0  0  0  0  0  0  0  0  0
    4.1677    1.2795   -3.9867 C   0  0  0  0  0  0  0  0  0  0  0  0
    3.3313    0.5332   -4.9691 C   0  0  0  0  0  0  0  0  0  0  0  0
    2.8263    1.4574   -5.8737 O   0  0  0  0  0  0  0  0  0  0  0  0
    2.1303   -0.1534   -4.3566 C   0  0  0  0  0  0  0  0  0  0  0  0
    1.5364   -0.9458   -5.3306 O   0  0  0  0  0  0  0  0  0  0  0  0
    1.2059    1.0662   -4.2149 C   0  0  0  0  0  0  0  0  0  0  0  0
    1.5369    1.7839   -5.4829 C   0  0  0  0  0  0  0  0  0  0  0  0
    1.2594    3.1861   -5.4548 N   0  0  0  0  0  0  0  0  0  0  0  0
    1.0911    3.9275   -6.5839 C   0  0  0  0  0  0  0  0  0  0  0  0
    0.8435    5.2028   -6.2693 N   0  0  0  0  0  0  0  0  0  0  0  0
    0.8462    5.3136   -4.9438 C   0  0  0  0  0  0  0  0  0  0  0  0
    0.6468    6.3954   -4.1306 C   0  0  0  0  0  0  0  0  0  0  0  0
    0.3830    7.6695   -4.7077 N   0  0  0  0  0  0  0  0  0  0  0  0
    0.7120    6.1955   -2.7951 N   0  0  0  0  0  0  0  0  0  0  0  0
    0.9683    4.9495   -2.3181 C   0  0  0  0  0  0  0  0  0  0  0  0
    1.1626    3.8941   -3.1228 N   0  0  0  0  0  0  0  0  0  0  0  0
    1.1058    4.0534   -4.4485 C   0  0  0  0  0  0  0  0  0  0  0  0
    1.3836   -2.5505   -4.9287 P   0  0  0  0  0  0  0  0  0  0  0  0
    0.6978   -3.3857   -6.2218 O   0  0  0  0  0  0  0  0  0  0  0  0
    2.7537   -3.1018   -4.6062 O   0  0  0  0  0  0  0  0  0  0  0  0
    0.3663   -2.7982   -3.5934 O   0  0  0  0  0  0  0  0  0  0  0  0
    0.1962   -4.1674   -3.3766 C   0  0  0  0  0  0  0  0  0  0  0  0
   -0.5773   -4.3924   -2.1174 C   0  0  0  0  0  0  0  0  0  0  0  0
   -0.7444   -5.7777   -1.8887 O   0  0  0  0  0  0  0  0  0  0  0  0
   -2.0059   -3.9602   -2.2435 C   0  0  0  0  0  0  0  0  0  0  0  0
   -2.2083   -2.5942   -2.1590 O   0  0  0  0  0  0  0  0  0  0  0  0
   -2.6266   -4.6837   -1.0495 C   0  0  0  0  0  0  0  0  0  0  0  0
   -1.7951   -5.9374   -1.0227 C   0  0  0  0  0  0  0  0  0  0  0  0
   -2.6327   -7.0857   -1.3804 N   0  0  0  0  0  0  0  0  0  0  0  0
   -3.3162   -7.7513   -0.4127 C   0  0  0  0  0  0  0  0  0  0  0  0
   -3.2145   -7.3604    0.7901 O   0  0  0  0  0  0  0  0  0  0  0  0
   -4.0992   -8.8175   -0.7030 N   0  0  0  0  0  0  0  0  0  0  0  0
   -4.2348   -9.2675   -1.9778 C   0  0  0  0  0  0  0  0  0  0  0  0
   -5.0596  -10.3828   -2.2502 N   0  0  0  0  0  0  0  0  0  0  0  0
   -3.5452   -8.6054   -2.9975 C   0  0  0  0  0  0  0  0  0  0  0  0
   -2.7466   -7.5093   -2.6602 C   0  0  0  0  0  0  0  0  0  0  0  0
   -3.2114   -2.1821   -3.4679 P   0  0  0  0  0  0  0  0  0  0  0  0
   -3.1415   -3.2214   -4.5781 O   0  0  0  0  0  0  0  0  0  0  0  0
   -2.7298   -0.7131   -4.0968 O   0  0  0  0  0  0  0  0  0  0  0  0
   -4.8351   -2.1719   -2.9310 O   0  0  0  0  0  0  0  0  0  0  0  0
   -5.2914   -0.8781   -2.9931 C   0  0  0  0  0  0  0  0  0  0  0  0
   -6.6790   -0.7205   -2.4028 C   0  0  0  0  0  0  0  0  0  0  0  0
   -6.7415   -1.0764   -1.0849 O   0  0  0  0  0  0  0  0  0  0  0  0
   -7.0439    0.7416   -2.4974 C   0  0  0  0  0  0  0  0  0  0  0  0
   -6.1388    1.4639   -3.2891 O   0  0  0  0  0  0  0  0  0  0  0  0
   -6.9277    1.1680   -1.0402 C   0  0  0  0  0  0  0  0  0  0  0  0
   -7.3105   -0.0433   -0.3450 C   0  0  0  0  0  0  0  0  0  0  0  0
   -6.9943   -0.2154    1.0382 N   0  0  0  0  0  0  0  0  0  0  0  0
   -7.0033   -1.4393    1.6408 C   0  0  0  0  0  0  0  0  0  0  0  0
   -6.6746   -1.3046    2.9079 N   0  0  0  0  0  0  0  0  0  0  0  0
   -6.4408   -0.0104    3.1840 C   0  0  0  0  0  0  0  0  0  0  0  0
   -6.0728    0.6893    4.3140 C   0  0  0  0  0  0  0  0  0  0  0  0
   -5.8913    0.0338    5.3928 O   0  0  0  0  0  0  0  0  0  0  0  0
   -5.9119    2.0184    4.2738 N   0  0  0  0  0  0  0  0  0  0  0  0
   -6.1213    2.6362    3.0987 C   0  0  0  0  0  0  0  0  0  0  0  0
   -5.9505    4.0679    3.0522 N   0  0  0  0  0  0  0  0  0  0  0  0
   -6.4809    1.9879    1.9752 N   0  0  0  0  0  0  0  0  0  0  0  0
   -6.6468    0.6572    1.9966 C   0  0  0  0  0  0  0  0  0  0  0  0
   -0.9144    3.6349    1.3394 H   0  0  0  0  0  0  0  0  0  0  0  0
   -2.0346    3.6449    3.1608 H   0  0  0  0  0  0  0  0  0  0  0  0
   -1.0140    2.2542    3.8168 H   0  0  0  0  0  0  0  0  0  0  0  0
   -3.2890    1.4818    3.2754 H   0  0  0  0  0  0  0  0  0  0  0  0
   -0.8743    0.2853    2.5333 H   0  0  0  0  0  0  0  0  0  0  0  0
   -1.6300   -0.3327    0.0563 H   0  0  0  0  0  0  0  0  0  0  0  0
   -0.7178    1.2471    0.3153 H   0  0  0  0  0  0  0  0  0  0  0  0
   -3.6821    0.6704    0.0301 H   0  0  0  0  0  0  0  0  0  0  0  0
   -3.0670    5.7654   -4.2306 H   0  0  0  0  0  0  0  0  0  0  0  0
   -1.9674    4.5752   -5.0734 H   0  0  0  0  0  0  0  0  0  0  0  0
   -1.5882    2.4309   -4.0947 H   0  0  0  0  0  0  0  0  0  0  0  0
   -1.7431    0.9010   -2.0964 H   0  0  0  0  0  0  0  0  0  0  0  0
   -0.3448   -3.9032    3.6520 H   0  0  0  0  0  0  0  0  0  0  0  0
   -0.3882   -2.8036    5.0572 H   0  0  0  0  0  0  0  0  0  0  0  0
    1.9029   -3.1343    3.0726 H   0  0  0  0  0  0  0  0  0  0  0  0
    1.5609   -0.8107    4.5183 H   0  0  0  0  0  0  0  0  0  0  0  0
    2.6868   -1.5603    6.8230 H   0  0  0  0  0  0  0  0  0  0  0  0
    0.9939   -2.2140    6.4423 H   0  0  0  0  0  0  0  0  0  0  0  0
    3.7109   -3.3787    5.6808 H   0  0  0  0  0  0  0  0  0  0  0  0
    0.4464   -4.5531    7.5189 H   0  0  0  0  0  0  0  0  0  0  0  0
    7.6430   -4.1674    7.9951 H   0  0  0  0  0  0  0  0  0  0  0  0
    7.9060   -5.9625    7.8660 H   0  0  0  0  0  0  0  0  0  0  0  0
    5.2895   -4.2079    6.7461 H   0  0  0  0  0  0  0  0  0  0  0  0
    4.7242    0.1109    1.1400 H   0  0  0  0  0  0  0  0  0  0  0  0
    4.6681    1.6322    2.2051 H   0  0  0  0  0  0  0  0  0  0  0  0
    2.6588    0.8835    0.0475 H   0  0  0  0  0  0  0  0  0  0  0  0
    3.7112    2.7472   -1.1956 H   0  0  0  0  0  0  0  0  0  0  0  0
    5.2770    3.3788    1.3520 H   0  0  0  0  0  0  0  0  0  0  0  0
    4.7249    4.4889   -0.0090 H   0  0  0  0  0  0  0  0  0  0  0  0
    2.5064    4.4525    0.6829 H   0  0  0  0  0  0  0  0  0  0  0  0
    2.5069    4.0094    5.7861 H   0  0  0  0  0  0  0  0  0  0  0  0
    5.2603    7.5571    5.0908 H   0  0  0  0  0  0  0  0  0  0  0  0
    5.1120    7.8634    3.3298 H   0  0  0  0  0  0  0  0  0  0  0  0
    6.4388    6.8185    3.8898 H   0  0  0  0  0  0  0  0  0  0  0  0
    4.7155    5.7698    1.8656 H   0  0  0  0  0  0  0  0  0  0  0  0
    4.9943    1.8345   -4.4895 H   0  0  0  0  0  0  0  0  0  0  0  0
    3.5696    2.0873   -3.4858 H   0  0  0  0  0  0  0  0  0  0  0  0
    3.9634   -0.1843   -5.5200 H   0  0  0  0  0  0  0  0  0  0  0  0
    2.3558   -0.6473   -3.4198 H   0  0  0  0  0  0  0  0  0  0  0  0
    0.1551    0.7505   -4.1450 H   0  0  0  0  0  0  0  0  0  0  0  0
    1.5592    1.5673   -3.2906 H   0  0  0  0  0  0  0  0  0  0  0  0
    0.8698    1.3527   -6.2835 H   0  0  0  0  0  0  0  0  0  0  0  0
    1.1439    3.5636   -7.6147 H   0  0  0  0  0  0  0  0  0  0  0  0
    0.9797    8.0446   -5.4984 H   0  0  0  0  0  0  0  0  0  0  0  0
   -0.3885    8.2974   -4.4032 H   0  0  0  0  0  0  0  0  0  0  0  0
    1.0082    4.8493   -1.2403 H   0  0  0  0  0  0  0  0  0  0  0  0
   -0.3254   -4.5637   -4.2678 H   0  0  0  0  0  0  0  0  0  0  0  0
    1.1680   -4.7203   -3.3288 H   0  0  0  0  0  0  0  0  0  0  0  0
   -0.0805   -4.0081   -1.2177 H   0  0  0  0  0  0  0  0  0  0  0  0
   -2.4501   -4.4183   -3.1311 H   0  0  0  0  0  0  0  0  0  0  0  0
   -2.4922   -4.0600   -0.1451 H   0  0  0  0  0  0  0  0  0  0  0  0
   -3.6876   -4.9107   -1.1790 H   0  0  0  0  0  0  0  0  0  0  0  0
   -1.3658   -6.1326   -0.0186 H   0  0  0  0  0  0  0  0  0  0  0  0
   -6.0332  -10.4173   -1.8415 H   0  0  0  0  0  0  0  0  0  0  0  0
   -4.7768  -11.1994   -2.8395 H   0  0  0  0  0  0  0  0  0  0  0  0
   -3.6355   -8.9458   -4.0318 H   0  0  0  0  0  0  0  0  0  0  0  0
   -2.2074   -6.9925   -3.4630 H   0  0  0  0  0  0  0  0  0  0  0  0
   -5.4054   -0.6030   -4.0793 H   0  0  0  0  0  0  0  0  0  0  0  0
   -4.5932   -0.1262   -2.5677 H   0  0  0  0  0  0  0  0  0  0  0  0
   -7.3880   -1.3393   -3.0145 H   0  0  0  0  0  0  0  0  0  0  0  0
   -8.0890    0.8853   -2.8548 H   0  0  0  0  0  0  0  0  0  0  0  0
   -5.8768    2.2783   -2.7799 H   0  0  0  0  0  0  0  0  0  0  0  0
   -5.8691    1.4710   -0.9431 H   0  0  0  0  0  0  0  0  0  0  0  0
   -7.6368    2.0243   -0.9774 H   0  0  0  0  0  0  0  0  0  0  0  0
   -8.4235   -0.1887   -0.4719 H   0  0  0  0  0  0  0  0  0  0  0  0
   -7.2442   -2.3995    1.1604 H   0  0  0  0  0  0  0  0  0  0  0  0
   -5.0672    4.5281    3.3726 H   0  0  0  0  0  0  0  0  0  0  0  0
   -6.7733    4.5912    2.6767 H   0  0  0  0  0  0  0  0  0  0  0  0
   -6.6295    2.4952    1.1024 H   0  0  0  0  0  0  0  0  0  0  0  0
  1  2  1  0
  1121  1  0
  2  3  1  0
  2122  1  0
  2123  1  0
  3  4  1  0
  3  5  1  0
  3124  1  0
  4  8  1  0
  5  7  1  0
  5  6  1  0
  5125  1  0
  6 17  1  0
  7  8  1  0
  7126  1  0
  7127  1  0
  8  9  1  0
  8128  1  0
  9 16  1  0
  9 10  1  0
 10 12  1  0
 10 11  2  0
 12 13  2  0
 13 15  1  0
 13 14  1  0
 14129  1  0
 14130  1  0
 15 16  2  0
 15131  1  0
 16132  1  0
 17 20  1  0
 17 19  2  0
 17 18  1  0
 20 21  1  0
 21 22  1  0
 21133  1  0
 21134  1  0
 22 24  1  0
 22 23  1  0
 22135  1  0
 23 27  1  0
 24 25  1  0
 24 26  1  0
 24136  1  0
 25 39  1  0
 26 27  1  0
 26137  1  0
 26138  1  0
 27 28  1  0
 27139  1  0
 28 38  1  0
 28 29  1  0
 29 30  2  0
 29140  1  0
 30 31  1  0
 31 32  1  0
 31 38  2  0
 32 33  2  0
 32 34  1  0
 34 35  2  0
 35 36  1  0
 35 37  1  0
 36141  1  0
 36142  1  0
 37 38  1  0
 37143  1  0
 39 41  2  0
 39 42  1  0
 39 40  1  0
 42 43  1  0
 43 44  1  0
 43144  1  0
 43145  1  0
 44 46  1  0
 44 45  1  0
 44146  1  0
 45 49  1  0
 46 48  1  0
 46 47  1  0
 46147  1  0
 47 59  1  0
 48 49  1  0
 48148  1  0
 48149  1  0
 49 50  1  0
 49150  1  0
 50 51  1  0
 50 58  1  0
 51 53  1  0
 51 52  2  0
 53 54  1  0
 53151  1  0
 54 55  2  0
 54 56  1  0
 56 57  1  0
 56 58  2  0
 57152  1  0
 57153  1  0
 57154  1  0
 58155  1  0
 59 61  2  0
 59 62  1  0
 59 60  1  0
 62 63  1  0
 63 64  1  0
 63156  1  0
 63157  1  0
 64 66  1  0
 64 65  1  0
 64158  1  0
 65 69  1  0
 66 68  1  0
 66 67  1  0
 66159  1  0
 67 80  1  0
 68 69  1  0
 68160  1  0
 68161  1  0
 69 70  1  0
 69162  1  0
 70 79  1  0
 70 71  1  0
 71 72  2  0
 71163  1  0
 72 73  1  0
 73 79  2  0
 73 74  1  0
 74 76  2  0
 74 75  1  0
 75164  1  0
 75165  1  0
 76 77  1  0
 77 78  2  0
 77166  1  0
 78 79  1  0
 80 83  1  0
 80 82  2  0
 80 81  1  0
 83 84  1  0
 84 85  1  0
 84167  1  0
 84168  1  0
 85 87  1  0
 85 86  1  0
 85169  1  0
 86 90  1  0
 87 88  1  0
 87 89  1  0
 87170  1  0
 88 99  1  0
 89 90  1  0
 89171  1  0
 89172  1  0
 90 91  1  0
 90173  1  0
 91 98  1  0
 91 92  1  0
 92 93  2  0
 92 94  1  0
 94 95  2  0
 95 97  1  0
 95 96  1  0
 96174  1  0
 96175  1  0
 97 98  2  0
 97176  1  0
 98177  1  0
 99100  2  0
 99101  1  0
 99102  1  0
102103  1  0
103104  1  0
103178  1  0
103179  1  0
104105  1  0
104106  1  0
104180  1  0
105109  1  0
106108  1  0
106107  1  0
106181  1  0
107182  1  0
108109  1  0
108183  1  0
108184  1  0
109110  1  0
109185  1  0
110111  1  0
110120  1  0
111112  2  0
111186  1  0
112113  1  0
113114  1  0
113120  2  0
114115  2  0
114116  1  0
116117  2  0
117118  1  0
117119  1  0
118187  1  0
118188  1  0
119120  1  0
119189  1  0
M  CHG  5  18  -1  40  -1  60  -1  81  -1 101  -1
M  END
$$$$
DNA (5'-D(*CP*GP*TP*AP*CP*G)-3')
     RDKit          3D

189203  0  0  0  0  0  0  0  0999 V2000
   -0.3535   -1.5292    6.7969 O   0  0  0  0  0  0  0  0  0  0  0  0
    0.5611   -1.4831    5.7714 C   0  0  0  0  0  0  0  0  0  0  0  0
    1.1272   -0.0983    5.5338 C   0  0  0  0  0  0  0  0  0  0  0  0
    1.7776    0.3995    6.6381 O   0  0  0  0  0  0  0  0  0  0  0  0
    0.0757    0.8872    5.1395 C   0  0  0  0  0  0  0  0  0  0  0  0
    0.4535    1.7140    4.0825 O   0  0  0  0  0  0  0  0  0  0  0  0
   -0.1209    1.7132    6.3936 C   0  0  0  0  0  0  0  0  0  0  0  0
    0.9426    1.2408    7.3298 C   0  0  0  0  0  0  0  0  0  0  0  0
    1.6729    2.4070    7.8451 N   0  0  0  0  0  0  0  0  0  0  0  0
    3.0224    2.4402    7.8478 C   0  0  0  0  0  0  0  0  0  0  0  0
    3.6835    1.4709    7.4088 O   0  0  0  0  0  0  0  0  0  0  0  0
    3.6450    3.5389    8.3329 N   0  0  0  0  0  0  0  0  0  0  0  0
    2.9411    4.5891    8.8084 C   0  0  0  0  0  0  0  0  0  0  0  0
    3.5532    5.7598    9.3243 N   0  0  0  0  0  0  0  0  0  0  0  0
    1.5530    4.5462    8.8015 C   0  0  0  0  0  0  0  0  0  0  0  0
    0.9157    3.4193    8.3040 C   0  0  0  0  0  0  0  0  0  0  0  0
   -0.7503    1.5968    2.9043 P   0  0  0  0  0  0  0  0  0  0  0  0
   -1.2989   -0.0154    2.8246 O   0  0  0  0  0  0  0  0  0  0  0  0
   -0.2516    1.9466    1.5304 O   0  0  0  0  0  0  0  0  0  0  0  0
   -2.0676    2.5853    3.2648 O   0  0  0  0  0  0  0  0  0  0  0  0
   -1.9597    3.7468    2.4784 C   0  0  0  0  0  0  0  0  0  0  0  0
   -3.1566    4.6078    2.8881 C   0  0  0  0  0  0  0  0  0  0  0  0
   -4.3410    3.9520    2.6481 O   0  0  0  0  0  0  0  0  0  0  0  0
   -3.1882    5.8316    2.0301 C   0  0  0  0  0  0  0  0  0  0  0  0
   -2.4205    5.6074    0.8882 O   0  0  0  0  0  0  0  0  0  0  0  0
   -4.6487    6.0150    1.6920 C   0  0  0  0  0  0  0  0  0  0  0  0
   -5.2806    5.0095    2.6686 C   0  0  0  0  0  0  0  0  0  0  0  0
   -6.5682    4.5631    2.2331 N   0  0  0  0  0  0  0  0  0  0  0  0
   -7.4324    5.0836    1.3555 C   0  0  0  0  0  0  0  0  0  0  0  0
   -8.5050    4.3027    1.2893 N   0  0  0  0  0  0  0  0  0  0  0  0
   -8.3798    3.2542    2.1140 C   0  0  0  0  0  0  0  0  0  0  0  0
   -9.1225    2.1613    2.4649 C   0  0  0  0  0  0  0  0  0  0  0  0
  -10.2485    1.9804    1.9375 O   0  0  0  0  0  0  0  0  0  0  0  0
   -8.6262    1.2896    3.3799 N   0  0  0  0  0  0  0  0  0  0  0  0
   -7.4343    1.4362    3.9697 C   0  0  0  0  0  0  0  0  0  0  0  0
   -6.9003    0.5356    4.9266 N   0  0  0  0  0  0  0  0  0  0  0  0
   -6.7057    2.5105    3.6243 N   0  0  0  0  0  0  0  0  0  0  0  0
   -7.1402    3.4205    2.7184 C   0  0  0  0  0  0  0  0  0  0  0  0
   -1.2159    6.8064    0.7528 P   0  0  0  0  0  0  0  0  0  0  0  0
   -2.0259    8.2801    0.4801 O   0  0  0  0  0  0  0  0  0  0  0  0
   -0.4483    6.9003    2.0678 O   0  0  0  0  0  0  0  0  0  0  0  0
   -0.1536    6.5240   -0.5028 O   0  0  0  0  0  0  0  0  0  0  0  0
    0.2783    5.2104   -0.4630 C   0  0  0  0  0  0  0  0  0  0  0  0
    1.4645    5.0057   -1.4169 C   0  0  0  0  0  0  0  0  0  0  0  0
    1.1200    5.2998   -2.6937 O   0  0  0  0  0  0  0  0  0  0  0  0
    1.8344    3.5499   -1.3283 C   0  0  0  0  0  0  0  0  0  0  0  0
    3.2463    3.4199   -1.3078 O   0  0  0  0  0  0  0  0  0  0  0  0
    1.2718    2.9835   -2.5977 C   0  0  0  0  0  0  0  0  0  0  0  0
    0.9958    4.1728   -3.4409 C   0  0  0  0  0  0  0  0  0  0  0  0
    1.9953    4.2032   -4.5143 N   0  0  0  0  0  0  0  0  0  0  0  0
    2.8371    5.2702   -4.6311 C   0  0  0  0  0  0  0  0  0  0  0  0
    2.7910    6.2435   -3.8497 O   0  0  0  0  0  0  0  0  0  0  0  0
    3.7613    5.2919   -5.6233 N   0  0  0  0  0  0  0  0  0  0  0  0
    3.8786    4.2887   -6.5041 C   0  0  0  0  0  0  0  0  0  0  0  0
    4.7418    4.3116   -7.4283 O   0  0  0  0  0  0  0  0  0  0  0  0
    3.0479    3.1941   -6.4200 C   0  0  0  0  0  0  0  0  0  0  0  0
    3.1652    2.0857   -7.3801 C   0  0  0  0  0  0  0  0  0  0  0  0
    2.1067    3.1933   -5.3943 C   0  0  0  0  0  0  0  0  0  0  0  0
    3.6843    2.7130    0.1372 P   0  0  0  0  0  0  0  0  0  0  0  0
    5.1160    3.4568    0.7132 O   0  0  0  0  0  0  0  0  0  0  0  0
    2.6510    2.9752    1.2315 O   0  0  0  0  0  0  0  0  0  0  0  0
    3.9864    1.0515    0.0347 O   0  0  0  0  0  0  0  0  0  0  0  0
    4.9340    0.7689    0.9668 C   0  0  0  0  0  0  0  0  0  0  0  0
    5.4505   -0.5795    1.1117 C   0  0  0  0  0  0  0  0  0  0  0  0
    6.0665   -1.1686    0.0119 O   0  0  0  0  0  0  0  0  0  0  0  0
    4.5058   -1.6777    1.5065 C   0  0  0  0  0  0  0  0  0  0  0  0
    3.6452   -1.9782    0.4533 O   0  0  0  0  0  0  0  0  0  0  0  0
    5.5612   -2.8087    1.6182 C   0  0  0  0  0  0  0  0  0  0  0  0
    6.5803   -2.3328    0.5999 C   0  0  0  0  0  0  0  0  0  0  0  0
    6.7037   -3.4094   -0.3624 N   0  0  0  0  0  0  0  0  0  0  0  0
    6.7072   -3.2864   -1.6848 C   0  0  0  0  0  0  0  0  0  0  0  0
    6.8458   -4.5406   -2.1833 N   0  0  0  0  0  0  0  0  0  0  0  0
    6.9277   -5.4366   -1.1637 C   0  0  0  0  0  0  0  0  0  0  0  0
    7.0707   -6.8016   -1.0695 C   0  0  0  0  0  0  0  0  0  0  0  0
    7.1616   -7.5441   -2.2863 N   0  0  0  0  0  0  0  0  0  0  0  0
    7.1178   -7.3913    0.1405 N   0  0  0  0  0  0  0  0  0  0  0  0
    7.0301   -6.6994    1.2719 C   0  0  0  0  0  0  0  0  0  0  0  0
    6.8899   -5.3633    1.1846 N   0  0  0  0  0  0  0  0  0  0  0  0
    6.8352   -4.6999   -0.0014 C   0  0  0  0  0  0  0  0  0  0  0  0
    2.0590   -2.2372    1.0172 P   0  0  0  0  0  0  0  0  0  0  0  0
    1.6804   -0.9258    2.0071 O   0  0  0  0  0  0  0  0  0  0  0  0
    2.0308   -3.4679    1.9327 O   0  0  0  0  0  0  0  0  0  0  0  0
    1.0583   -2.4189   -0.2972 O   0  0  0  0  0  0  0  0  0  0  0  0
    0.5733   -3.6824   -0.5014 C   0  0  0  0  0  0  0  0  0  0  0  0
   -0.4749   -3.7472   -1.5597 C   0  0  0  0  0  0  0  0  0  0  0  0
   -0.9861   -5.0530   -1.7662 O   0  0  0  0  0  0  0  0  0  0  0  0
    0.0104   -3.2529   -2.9020 C   0  0  0  0  0  0  0  0  0  0  0  0
   -0.5738   -2.0388   -3.1371 O   0  0  0  0  0  0  0  0  0  0  0  0
   -0.5667   -4.3479   -3.8204 C   0  0  0  0  0  0  0  0  0  0  0  0
   -1.6948   -4.8072   -2.9444 C   0  0  0  0  0  0  0  0  0  0  0  0
   -2.4977   -5.8678   -3.4187 N   0  0  0  0  0  0  0  0  0  0  0  0
   -2.0879   -6.9292   -4.1257 C   0  0  0  0  0  0  0  0  0  0  0  0
   -0.8766   -7.0360   -4.4122 O   0  0  0  0  0  0  0  0  0  0  0  0
   -2.9067   -7.9081   -4.5569 N   0  0  0  0  0  0  0  0  0  0  0  0
   -4.2353   -7.8735   -4.2911 C   0  0  0  0  0  0  0  0  0  0  0  0
   -5.1013   -8.9228   -4.7571 N   0  0  0  0  0  0  0  0  0  0  0  0
   -4.7111   -6.7978   -3.5631 C   0  0  0  0  0  0  0  0  0  0  0  0
   -3.8357   -5.8216   -3.1440 C   0  0  0  0  0  0  0  0  0  0  0  0
    0.4170   -0.8094   -3.6634 P   0  0  0  0  0  0  0  0  0  0  0  0
    1.1617   -0.2583   -2.4702 O   0  0  0  0  0  0  0  0  0  0  0  0
    1.5560   -1.2957   -4.7904 O   0  0  0  0  0  0  0  0  0  0  0  0
   -0.5188    0.5018   -4.2589 O   0  0  0  0  0  0  0  0  0  0  0  0
   -1.1583    0.0181   -5.4178 C   0  0  0  0  0  0  0  0  0  0  0  0
   -2.3222    0.9679   -5.6813 C   0  0  0  0  0  0  0  0  0  0  0  0
   -3.1716    0.9636   -4.5866 O   0  0  0  0  0  0  0  0  0  0  0  0
   -3.2148    0.3713   -6.7776 C   0  0  0  0  0  0  0  0  0  0  0  0
   -2.7104    0.7280   -8.0141 O   0  0  0  0  0  0  0  0  0  0  0  0
   -4.5383    1.0075   -6.4683 C   0  0  0  0  0  0  0  0  0  0  0  0
   -4.4331    1.2867   -4.9917 C   0  0  0  0  0  0  0  0  0  0  0  0
   -5.4275    0.4389   -4.3121 N   0  0  0  0  0  0  0  0  0  0  0  0
   -6.6398    0.0660   -4.7494 C   0  0  0  0  0  0  0  0  0  0  0  0
   -7.2220   -0.7121   -3.8268 N   0  0  0  0  0  0  0  0  0  0  0  0
   -6.3782   -0.8359   -2.7973 C   0  0  0  0  0  0  0  0  0  0  0  0
   -6.4475   -1.5008   -1.6056 C   0  0  0  0  0  0  0  0  0  0  0  0
   -7.4664   -2.1742   -1.2901 O   0  0  0  0  0  0  0  0  0  0  0  0
   -5.4492   -1.4915   -0.6846 N   0  0  0  0  0  0  0  0  0  0  0  0
   -4.3439   -0.7770   -0.9940 C   0  0  0  0  0  0  0  0  0  0  0  0
   -3.2994   -0.7621   -0.0411 N   0  0  0  0  0  0  0  0  0  0  0  0
   -4.2598   -0.1107   -2.1738 N   0  0  0  0  0  0  0  0  0  0  0  0
   -5.2298   -0.1095   -3.0890 C   0  0  0  0  0  0  0  0  0  0  0  0
   -1.0211   -2.2184    6.6005 H   0  0  0  0  0  0  0  0  0  0  0  0
    0.0847   -1.8716    4.8523 H   0  0  0  0  0  0  0  0  0  0  0  0
    1.3956   -2.1708    6.0364 H   0  0  0  0  0  0  0  0  0  0  0  0
    1.8593   -0.1922    4.6990 H   0  0  0  0  0  0  0  0  0  0  0  0
   -0.8719    0.3420    4.9388 H   0  0  0  0  0  0  0  0  0  0  0  0
   -1.1419    1.5536    6.8208 H   0  0  0  0  0  0  0  0  0  0  0  0
    0.0600    2.7756    6.1446 H   0  0  0  0  0  0  0  0  0  0  0  0
    0.4453    0.7186    8.1904 H   0  0  0  0  0  0  0  0  0  0  0  0
    3.1443    6.3379   10.0909 H   0  0  0  0  0  0  0  0  0  0  0  0
    4.4582    6.0765    8.9318 H   0  0  0  0  0  0  0  0  0  0  0  0
    0.9360    5.3584    9.1690 H   0  0  0  0  0  0  0  0  0  0  0  0
   -0.1664    3.3676    8.2908 H   0  0  0  0  0  0  0  0  0  0  0  0
   -1.0044    4.2844    2.6369 H   0  0  0  0  0  0  0  0  0  0  0  0
   -2.0506    3.5076    1.4041 H   0  0  0  0  0  0  0  0  0  0  0  0
   -3.0886    4.8513    3.9761 H   0  0  0  0  0  0  0  0  0  0  0  0
   -2.8077    6.7156    2.6028 H   0  0  0  0  0  0  0  0  0  0  0  0
   -4.7784    5.6735    0.6525 H   0  0  0  0  0  0  0  0  0  0  0  0
   -5.0290    7.0303    1.8856 H   0  0  0  0  0  0  0  0  0  0  0  0
   -5.2977    5.4473    3.6780 H   0  0  0  0  0  0  0  0  0  0  0  0
   -7.2613    6.0029    0.7996 H   0  0  0  0  0  0  0  0  0  0  0  0
   -6.5006    0.8741    5.8258 H   0  0  0  0  0  0  0  0  0  0  0  0
   -6.9279   -0.4987    4.6812 H   0  0  0  0  0  0  0  0  0  0  0  0
   -5.7654    2.6352    4.0844 H   0  0  0  0  0  0  0  0  0  0  0  0
    0.5148    4.8591    0.5541 H   0  0  0  0  0  0  0  0  0  0  0  0
   -0.5517    4.5669   -0.8201 H   0  0  0  0  0  0  0  0  0  0  0  0
    2.3368    5.6116   -1.0591 H   0  0  0  0  0  0  0  0  0  0  0  0
    1.4034    3.0715   -0.4153 H   0  0  0  0  0  0  0  0  0  0  0  0
    0.3017    2.4846   -2.3560 H   0  0  0  0  0  0  0  0  0  0  0  0
    1.9739    2.2797   -3.0974 H   0  0  0  0  0  0  0  0  0  0  0  0
   -0.0358    4.1691   -3.8852 H   0  0  0  0  0  0  0  0  0  0  0  0
    4.4236    6.0961   -5.7447 H   0  0  0  0  0  0  0  0  0  0  0  0
    2.1448    1.7981   -7.7392 H   0  0  0  0  0  0  0  0  0  0  0  0
    3.7527    2.4382   -8.2536 H   0  0  0  0  0  0  0  0  0  0  0  0
    3.6533    1.1779   -6.9661 H   0  0  0  0  0  0  0  0  0  0  0  0
    1.4158    2.3480   -5.2750 H   0  0  0  0  0  0  0  0  0  0  0  0
    4.5353    1.1095    1.9580 H   0  0  0  0  0  0  0  0  0  0  0  0
    5.8003    1.4632    0.7840 H   0  0  0  0  0  0  0  0  0  0  0  0
    6.2487   -0.5624    1.9121 H   0  0  0  0  0  0  0  0  0  0  0  0
    4.0068   -1.5384    2.4664 H   0  0  0  0  0  0  0  0  0  0  0  0
    5.9758   -2.8112    2.6580 H   0  0  0  0  0  0  0  0  0  0  0  0
    5.1311   -3.7829    1.4018 H   0  0  0  0  0  0  0  0  0  0  0  0
    7.5437   -2.1452    1.0811 H   0  0  0  0  0  0  0  0  0  0  0  0
    6.6151   -2.3515   -2.2196 H   0  0  0  0  0  0  0  0  0  0  0  0
    6.6780   -8.4788   -2.3779 H   0  0  0  0  0  0  0  0  0  0  0  0
    7.7092   -7.1742   -3.1102 H   0  0  0  0  0  0  0  0  0  0  0  0
    7.0746   -7.2279    2.2178 H   0  0  0  0  0  0  0  0  0  0  0  0
    1.4296   -4.3208   -0.8586 H   0  0  0  0  0  0  0  0  0  0  0  0
    0.2069   -4.1768    0.4190 H   0  0  0  0  0  0  0  0  0  0  0  0
   -1.3999   -3.1756   -1.2440 H   0  0  0  0  0  0  0  0  0  0  0  0
    1.1056   -3.2246   -2.9858 H   0  0  0  0  0  0  0  0  0  0  0  0
    0.2447   -5.1033   -3.8626 H   0  0  0  0  0  0  0  0  0  0  0  0
   -0.8402   -3.9745   -4.8017 H   0  0  0  0  0  0  0  0  0  0  0  0
   -2.3007   -3.8782   -2.7080 H   0  0  0  0  0  0  0  0  0  0  0  0
   -6.0330   -8.6206   -5.1639 H   0  0  0  0  0  0  0  0  0  0  0  0
   -4.8199   -9.9334   -4.6964 H   0  0  0  0  0  0  0  0  0  0  0  0
   -5.7735   -6.7702   -3.3486 H   0  0  0  0  0  0  0  0  0  0  0  0
   -4.2632   -4.9986   -2.5745 H   0  0  0  0  0  0  0  0  0  0  0  0
   -1.4896   -1.0225   -5.3231 H   0  0  0  0  0  0  0  0  0  0  0  0
   -0.4518    0.0699   -6.2826 H   0  0  0  0  0  0  0  0  0  0  0  0
   -1.9465    1.9511   -5.9670 H   0  0  0  0  0  0  0  0  0  0  0  0
   -3.2499   -0.7310   -6.6321 H   0  0  0  0  0  0  0  0  0  0  0  0
   -2.3829    1.6645   -7.9244 H   0  0  0  0  0  0  0  0  0  0  0  0
   -4.6460    1.9746   -6.9835 H   0  0  0  0  0  0  0  0  0  0  0  0
   -5.3374    0.2841   -6.7124 H   0  0  0  0  0  0  0  0  0  0  0  0
   -4.6388    2.3448   -4.7466 H   0  0  0  0  0  0  0  0  0  0  0  0
   -7.1051    0.3383   -5.7021 H   0  0  0  0  0  0  0  0  0  0  0  0
   -2.4414   -1.3454   -0.0982 H   0  0  0  0  0  0  0  0  0  0  0  0
   -3.3482   -0.1286    0.8083 H   0  0  0  0  0  0  0  0  0  0  0  0
   -3.3943    0.4113   -2.3432 H   0  0  0  0  0  0  0  0  0  0  0  0
  1  2  1  0
  1121  1  0
  2  3  1  0
  2122  1  0
  2123  1  0
  3  4  1  0
  3  5  1  0
  3124  1  0
  4  8  1  0
  5  7  1  0
  5  6  1  0
  5125  1  0
  6 17  1  0
  7  8  1  0
  7126  1  0
  7127  1  0
  8  9  1  0
  8128  1  0
  9 16  1  0
  9 10  1  0
 10 12  1  0
 10 11  2  0
 12 13  2  0
 13 15  1  0
 13 14  1  0
 14129  1  0
 14130  1  0
 15 16  2  0
 15131  1  0
 16132  1  0
 17 20  1  0
 17 19  2  0
 17 18  1  0
 20 21  1  0
 21 22  1  0
 21133  1  0
 21134  1  0
 22 24  1  0
 22 23  1  0
 22135  1  0
 23 27  1  0
 24 25  1  0
 24 26  1  0
 24136  1  0
 25 39  1  0
 26 27  1  0
 26137  1  0
 26138  1  0
 27 28  1  0
 27139  1  0
 28 38  1  0
 28 29  1  0
 29 30  2  0
 29140  1  0
 30 31  1  0
 31 32  1  0
 31 38  2  0
 32 33  2  0
 32 34  1  0
 34 35  2  0
 35 36  1  0
 35 37  1  0
 36141  1  0
 36142  1  0
 37 38  1  0
 37143  1  0
 39 41  2  0
 39 42  1  0
 39 40  1  0
 42 43  1  0
 43 44  1  0
 43144  1  0
 43145  1  0
 44 46  1  0
 44 45  1  0
 44146  1  0
 45 49  1  0
 46 48  1  0
 46 47  1  0
 46147  1  0
 47 59  1  0
 48 49  1  0
 48148  1  0
 48149  1  0
 49 50  1  0
 49150  1  0
 50 51  1  0
 50 58  1  0
 51 53  1  0
 51 52  2  0
 53 54  1  0
 53151  1  0
 54 55  2  0
 54 56  1  0
 56 57  1  0
 56 58  2  0
 57152  1  0
 57153  1  0
 57154  1  0
 58155  1  0
 59 61  2  0
 59 62  1  0
 59 60  1  0
 62 63  1  0
 63 64  1  0
 63156  1  0
 63157  1  0
 64 66  1  0
 64 65  1  0
 64158  1  0
 65 69  1  0
 66 68  1  0
 66 67  1  0
 66159  1  0
 67 80  1  0
 68 69  1  0
 68160  1  0
 68161  1  0
 69 70  1  0
 69162  1  0
 70 79  1  0
 70 71  1  0
 71 72  2  0
 71163  1  0
 72 73  1  0
 73 79  2  0
 73 74  1  0
 74 76  2  0
 74 75  1  0
 75164  1  0
 75165  1  0
 76 77  1  0
 77 78  2  0
 77166  1  0
 78 79  1  0
 80 83  1  0
 80 82  2  0
 80 81  1  0
 83 84  1  0
 84 85  1  0
 84167  1  0
 84168  1  0
 85 87  1  0
 85 86  1  0
 85169  1  0
 86 90  1  0
 87 88  1  0
 87 89  1  0
 87170  1  0
 88 99  1  0
 89 90  1  0
 89171  1  0
 89172  1  0
 90 91  1  0
 90173  1  0
 91 98  1  0
 91 92  1  0
 92 93  2  0
 92 94  1  0
 94 95  2  0
 95 97  1  0
 95 96  1  0
 96174  1  0
 96175  1  0
 97 98  2  0
 97176  1  0
 98177  1  0
 99100  2  0
 99101  1  0
 99102  1  0
102103  1  0
103104  1  0
103178  1  0
103179  1  0
104105  1  0
104106  1  0
104180  1  0
105109  1  0
106108  1  0
106107  1  0
106181  1  0
107182  1  0
108109  1  0
108183  1  0
108184  1  0
109110  1  0
109185  1  0
110111  1  0
110120  1  0
111112  2  0
111186  1  0
112113  1  0
113114  1  0
113120  2  0
114115  2  0
114116  1  0
116117  2  0
117118  1  0
117119  1  0
118187  1  0
118188  1  0
119120  1  0
119189  1  0
M  CHG  5  18  -1  40  -1  60  -1  81  -1 101  -1
M  END
$$$$
DNA (5'-D(*CP*GP*TP*AP*CP*G)-3')
     RDKit          3D

189203  0  0  0  0  0  0  0  0999 V2000
   -0.3669   -4.0095   -3.2432 O   0  0  0  0  0  0  0  0  0  0  0  0
   -0.4328   -2.6372   -3.3787 C   0  0  0  0  0  0  0  0  0  0  0  0
    0.1589   -2.0048   -2.1385 C   0  0  0  0  0  0  0  0  0  0  0  0
    1.4995   -2.3804   -1.9708 O   0  0  0  0  0  0  0  0  0  0  0  0
   -0.5680   -2.5751   -0.9616 C   0  0  0  0  0  0  0  0  0  0  0  0
   -1.1001   -3.8480   -1.1812 O   0  0  0  0  0  0  0  0  0  0  0  0
    0.5349   -2.6256    0.0792 C   0  0  0  0  0  0  0  0  0  0  0  0
    1.7709   -2.1496   -0.6280 C   0  0  0  0  0  0  0  0  0  0  0  0
    2.9286   -2.9432   -0.2171 N   0  0  0  0  0  0  0  0  0  0  0  0
    3.8596   -3.3756   -1.0670 C   0  0  0  0  0  0  0  0  0  0  0  0
    3.7487   -3.0849   -2.2900 O   0  0  0  0  0  0  0  0  0  0  0  0
    4.8953   -4.1133   -0.5885 N   0  0  0  0  0  0  0  0  0  0  0  0
    4.9884   -4.4109    0.7396 C   0  0  0  0  0  0  0  0  0  0  0  0
    6.0580   -5.1772    1.2665 N   0  0  0  0  0  0  0  0  0  0  0  0
    4.0304   -3.9676    1.6273 C   0  0  0  0  0  0  0  0  0  0  0  0
    2.9831   -3.2172    1.1175 C   0  0  0  0  0  0  0  0  0  0  0  0
   -2.7171   -3.9540   -0.6649 P   0  0  0  0  0  0  0  0  0  0  0  0
   -3.2781   -2.4478   -0.1374 O   0  0  0  0  0  0  0  0  0  0  0  0
   -3.6002   -4.4234   -1.7764 O   0  0  0  0  0  0  0  0  0  0  0  0
   -2.7348   -4.9695    0.6854 O   0  0  0  0  0  0  0  0  0  0  0  0
   -3.8123   -4.7274    1.5352 C   0  0  0  0  0  0  0  0  0  0  0  0
   -3.5582   -5.3639    2.8840 C   0  0  0  0  0  0  0  0  0  0  0  0
   -3.3970   -6.7171    2.7338 O   0  0  0  0  0  0  0  0  0  0  0  0
   -2.2938   -4.8362    3.5148 C   0  0  0  0  0  0  0  0  0  0  0  0
   -1.9626   -3.5727    3.0224 O   0  0  0  0  0  0  0  0  0  0  0  0
   -1.2807   -5.8956    3.2218 C   0  0  0  0  0  0  0  0  0  0  0  0
   -2.0703   -6.9742    2.5371 C   0  0  0  0  0  0  0  0  0  0  0  0
   -1.7169   -8.2970    3.0691 N   0  0  0  0  0  0  0  0  0  0  0  0
   -2.0660   -8.8441    4.2437 C   0  0  0  0  0  0  0  0  0  0  0  0
   -1.5401  -10.0828    4.3720 N   0  0  0  0  0  0  0  0  0  0  0  0
   -0.8345  -10.3446    3.2537 C   0  0  0  0  0  0  0  0  0  0  0  0
   -0.0843  -11.3933    2.7725 C   0  0  0  0  0  0  0  0  0  0  0  0
    0.0430  -12.4368    3.4866 O   0  0  0  0  0  0  0  0  0  0  0  0
    0.5287  -11.3566    1.5571 N   0  0  0  0  0  0  0  0  0  0  0  0
    0.4078  -10.2640    0.7855 C   0  0  0  0  0  0  0  0  0  0  0  0
    1.0627  -10.2760   -0.4697 N   0  0  0  0  0  0  0  0  0  0  0  0
   -0.3226   -9.2237    1.2364 N   0  0  0  0  0  0  0  0  0  0  0  0
   -0.9439   -9.2233    2.4328 C   0  0  0  0  0  0  0  0  0  0  0  0
   -2.0306   -2.4240    4.2546 P   0  0  0  0  0  0  0  0  0  0  0  0
   -3.6552   -2.0044    4.4814 O   0  0  0  0  0  0  0  0  0  0  0  0
   -1.4514   -3.0413    5.5026 O   0  0  0  0  0  0  0  0  0  0  0  0
   -1.0790   -1.0781    3.8701 O   0  0  0  0  0  0  0  0  0  0  0  0
   -1.1220   -0.1177    4.8562 C   0  0  0  0  0  0  0  0  0  0  0  0
   -0.1348    0.9681    4.6031 C   0  0  0  0  0  0  0  0  0  0  0  0
   -0.1378    1.9451    5.5855 O   0  0  0  0  0  0  0  0  0  0  0  0
   -0.2540    1.6530    3.2725 C   0  0  0  0  0  0  0  0  0  0  0  0
   -1.5605    1.7567    2.8059 O   0  0  0  0  0  0  0  0  0  0  0  0
    0.1016    3.0953    3.6867 C   0  0  0  0  0  0  0  0  0  0  0  0
   -0.6266    3.0911    5.0117 C   0  0  0  0  0  0  0  0  0  0  0  0
   -0.4359    4.2672    5.8019 N   0  0  0  0  0  0  0  0  0  0  0  0
    0.4989    4.1979    6.7896 C   0  0  0  0  0  0  0  0  0  0  0  0
    1.1505    3.1135    6.9624 O   0  0  0  0  0  0  0  0  0  0  0  0
    0.7493    5.2534    7.5900 N   0  0  0  0  0  0  0  0  0  0  0  0
    0.1082    6.4322    7.4767 C   0  0  0  0  0  0  0  0  0  0  0  0
    0.3448    7.4162    8.2264 O   0  0  0  0  0  0  0  0  0  0  0  0
   -0.8512    6.4965    6.4589 C   0  0  0  0  0  0  0  0  0  0  0  0
   -1.6028    7.7811    6.2757 C   0  0  0  0  0  0  0  0  0  0  0  0
   -1.1006    5.4223    5.6510 C   0  0  0  0  0  0  0  0  0  0  0  0
   -1.6807    1.4051    1.1647 P   0  0  0  0  0  0  0  0  0  0  0  0
   -0.3104    0.6104    0.6338 O   0  0  0  0  0  0  0  0  0  0  0  0
   -2.9353    0.5762    0.9771 O   0  0  0  0  0  0  0  0  0  0  0  0
   -1.9575    2.8160    0.2256 O   0  0  0  0  0  0  0  0  0  0  0  0
   -1.5241    2.4638   -1.0489 C   0  0  0  0  0  0  0  0  0  0  0  0
   -1.7265    3.5368   -2.0854 C   0  0  0  0  0  0  0  0  0  0  0  0
   -3.0258    3.9103   -2.2683 O   0  0  0  0  0  0  0  0  0  0  0  0
   -0.9578    4.7909   -1.8538 C   0  0  0  0  0  0  0  0  0  0  0  0
    0.1601    4.6031   -1.0486 O   0  0  0  0  0  0  0  0  0  0  0  0
   -1.9699    5.7097   -1.2446 C   0  0  0  0  0  0  0  0  0  0  0  0
   -3.2776    5.0916   -1.6187 C   0  0  0  0  0  0  0  0  0  0  0  0
   -4.1765    4.9264   -0.5097 N   0  0  0  0  0  0  0  0  0  0  0  0
   -5.0885    3.9231   -0.4234 C   0  0  0  0  0  0  0  0  0  0  0  0
   -5.7804    4.0431    0.7415 N   0  0  0  0  0  0  0  0  0  0  0  0
   -5.3028    5.1242    1.3903 C   0  0  0  0  0  0  0  0  0  0  0  0
   -5.5931    5.7490    2.5962 C   0  0  0  0  0  0  0  0  0  0  0  0
   -6.6349    5.1435    3.3726 N   0  0  0  0  0  0  0  0  0  0  0  0
   -4.9246    6.8332    2.9661 N   0  0  0  0  0  0  0  0  0  0  0  0
   -3.9603    7.3701    2.2193 C   0  0  0  0  0  0  0  0  0  0  0  0
   -3.6598    6.7734    1.0340 N   0  0  0  0  0  0  0  0  0  0  0  0
   -4.3067    5.6681    0.6061 C   0  0  0  0  0  0  0  0  0  0  0  0
    1.5245    5.0216   -1.9537 P   0  0  0  0  0  0  0  0  0  0  0  0
    2.4845    6.1471   -1.1183 O   0  0  0  0  0  0  0  0  0  0  0  0
    1.1808    5.6475   -3.2800 O   0  0  0  0  0  0  0  0  0  0  0  0
    2.4897    3.6612   -2.2580 O   0  0  0  0  0  0  0  0  0  0  0  0
    3.3084    3.4490   -1.1782 C   0  0  0  0  0  0  0  0  0  0  0  0
    4.0372    2.1283   -1.1782 C   0  0  0  0  0  0  0  0  0  0  0  0
    4.7973    2.1097   -0.0100 O   0  0  0  0  0  0  0  0  0  0  0  0
    4.9895    2.0897   -2.3223 C   0  0  0  0  0  0  0  0  0  0  0  0
    4.5144    1.4911   -3.4626 O   0  0  0  0  0  0  0  0  0  0  0  0
    6.1156    1.2378   -1.7467 C   0  0  0  0  0  0  0  0  0  0  0  0
    6.0159    1.5311   -0.2708 C   0  0  0  0  0  0  0  0  0  0  0  0
    6.3116    0.4133    0.5785 N   0  0  0  0  0  0  0  0  0  0  0  0
    7.2635   -0.5029    0.3411 C   0  0  0  0  0  0  0  0  0  0  0  0
    7.9635   -0.3863   -0.7209 O   0  0  0  0  0  0  0  0  0  0  0  0
    7.4976   -1.5347    1.1878 N   0  0  0  0  0  0  0  0  0  0  0  0
    6.7443   -1.6383    2.3054 C   0  0  0  0  0  0  0  0  0  0  0  0
    6.9520   -2.7129    3.2377 N   0  0  0  0  0  0  0  0  0  0  0  0
    5.7437   -0.7268    2.6126 C   0  0  0  0  0  0  0  0  0  0  0  0
    5.5554    0.2996    1.7110 C   0  0  0  0  0  0  0  0  0  0  0  0
    4.8519    2.3650   -4.8643 P   0  0  0  0  0  0  0  0  0  0  0  0
    6.3436    2.3107   -5.1878 O   0  0  0  0  0  0  0  0  0  0  0  0
    4.4250    3.9731   -4.6353 O   0  0  0  0  0  0  0  0  0  0  0  0
    4.0484    1.7026   -6.1747 O   0  0  0  0  0  0  0  0  0  0  0  0
    2.6980    1.6442   -5.9132 C   0  0  0  0  0  0  0  0  0  0  0  0
    1.9031    1.1421   -7.1016 C   0  0  0  0  0  0  0  0  0  0  0  0
    0.5465    1.0738   -6.8362 O   0  0  0  0  0  0  0  0  0  0  0  0
    2.2777   -0.2333   -7.5421 C   0  0  0  0  0  0  0  0  0  0  0  0
    1.9235   -0.3671   -8.8946 O   0  0  0  0  0  0  0  0  0  0  0  0
    1.3435   -1.1060   -6.7145 C   0  0  0  0  0  0  0  0  0  0  0  0
    0.3109   -0.1407   -6.2306 C   0  0  0  0  0  0  0  0  0  0  0  0
   -1.0397   -0.6176   -6.3732 N   0  0  0  0  0  0  0  0  0  0  0  0
   -1.4271   -1.8719   -6.6939 C   0  0  0  0  0  0  0  0  0  0  0  0
   -2.7736   -1.9385   -6.7289 N   0  0  0  0  0  0  0  0  0  0  0  0
   -3.2751   -0.7338   -6.4323 C   0  0  0  0  0  0  0  0  0  0  0  0
   -4.5465   -0.2610   -6.3271 C   0  0  0  0  0  0  0  0  0  0  0  0
   -5.5375   -1.0355   -6.5338 O   0  0  0  0  0  0  0  0  0  0  0  0
   -4.7323    1.0345   -6.0005 N   0  0  0  0  0  0  0  0  0  0  0  0
   -3.6605    1.8299   -5.7860 C   0  0  0  0  0  0  0  0  0  0  0  0
   -3.8295    3.2158   -5.4358 N   0  0  0  0  0  0  0  0  0  0  0  0
   -2.3905    1.3774   -5.8855 N   0  0  0  0  0  0  0  0  0  0  0  0
   -2.1631    0.0858   -6.2110 C   0  0  0  0  0  0  0  0  0  0  0  0
   -1.2386   -4.4087   -3.5549 H   0  0  0  0  0  0  0  0  0  0  0  0
    0.1195   -2.2833   -4.2910 H   0  0  0  0  0  0  0  0  0  0  0  0
   -1.4989   -2.3376   -3.4312 H   0  0  0  0  0  0  0  0  0  0  0  0
    0.0895   -0.9022   -2.2252 H   0  0  0  0  0  0  0  0  0  0  0  0
   -1.3842   -1.9149   -0.6687 H   0  0  0  0  0  0  0  0  0  0  0  0
    0.7376   -3.6779    0.3901 H   0  0  0  0  0  0  0  0  0  0  0  0
    0.2924   -2.0685    0.9878 H   0  0  0  0  0  0  0  0  0  0  0  0
    1.9841   -1.0640   -0.4336 H   0  0  0  0  0  0  0  0  0  0  0  0
    7.0569   -4.8991    1.2121 H   0  0  0  0  0  0  0  0  0  0  0  0
    5.7778   -6.0851    1.7359 H   0  0  0  0  0  0  0  0  0  0  0  0
    4.0830   -4.1907    2.7035 H   0  0  0  0  0  0  0  0  0  0  0  0
    2.2247   -2.8636    1.8059 H   0  0  0  0  0  0  0  0  0  0  0  0
   -4.7079   -5.1610    1.0557 H   0  0  0  0  0  0  0  0  0  0  0  0
   -3.9833   -3.6410    1.7221 H   0  0  0  0  0  0  0  0  0  0  0  0
   -4.4229   -5.1629    3.5363 H   0  0  0  0  0  0  0  0  0  0  0  0
   -2.4219   -4.7428    4.6185 H   0  0  0  0  0  0  0  0  0  0  0  0
   -0.8985   -6.3421    4.1687 H   0  0  0  0  0  0  0  0  0  0  0  0
   -0.4418   -5.5227    2.5845 H   0  0  0  0  0  0  0  0  0  0  0  0
   -1.7862   -6.9626    1.4629 H   0  0  0  0  0  0  0  0  0  0  0  0
   -2.6841   -8.3781    5.0004 H   0  0  0  0  0  0  0  0  0  0  0  0
    0.5195  -10.0167   -1.3269 H   0  0  0  0  0  0  0  0  0  0  0  0
    2.0677  -10.5336   -0.5687 H   0  0  0  0  0  0  0  0  0  0  0  0
   -0.3902   -8.3941    0.6057 H   0  0  0  0  0  0  0  0  0  0  0  0
   -2.1449    0.3137    4.9135 H   0  0  0  0  0  0  0  0  0  0  0  0
   -0.9035   -0.5144    5.8741 H   0  0  0  0  0  0  0  0  0  0  0  0
    0.8907    0.4933    4.6328 H   0  0  0  0  0  0  0  0  0  0  0  0
    0.4519    1.2936    2.4999 H   0  0  0  0  0  0  0  0  0  0  0  0
    1.1860    3.1349    3.7586 H   0  0  0  0  0  0  0  0  0  0  0  0
   -0.3404    3.8159    2.9704 H   0  0  0  0  0  0  0  0  0  0  0  0
   -1.7085    2.8984    4.7851 H   0  0  0  0  0  0  0  0  0  0  0  0
    1.4805    5.1276    8.3239 H   0  0  0  0  0  0  0  0  0  0  0  0
   -1.2368    8.5363    6.9724 H   0  0  0  0  0  0  0  0  0  0  0  0
   -2.7065    7.5912    6.3934 H   0  0  0  0  0  0  0  0  0  0  0  0
   -1.4613    8.0667    5.2150 H   0  0  0  0  0  0  0  0  0  0  0  0
   -1.8449    5.4573    4.8548 H   0  0  0  0  0  0  0  0  0  0  0  0
   -0.4913    2.1014   -1.0277 H   0  0  0  0  0  0  0  0  0  0  0  0
   -2.1609    1.6002   -1.3729 H   0  0  0  0  0  0  0  0  0  0  0  0
   -1.3400    3.0861   -3.0496 H   0  0  0  0  0  0  0  0  0  0  0  0
   -0.6222    5.1930   -2.8400 H   0  0  0  0  0  0  0  0  0  0  0  0
   -1.8594    6.7137   -1.7491 H   0  0  0  0  0  0  0  0  0  0  0  0
   -1.8321    5.7859   -0.1406 H   0  0  0  0  0  0  0  0  0  0  0  0
   -3.8140    5.7442   -2.3690 H   0  0  0  0  0  0  0  0  0  0  0  0
   -5.2795    3.1257   -1.1385 H   0  0  0  0  0  0  0  0  0  0  0  0
   -7.5887    5.1100    2.9304 H   0  0  0  0  0  0  0  0  0  0  0  0
   -6.4643    4.7504    4.3295 H   0  0  0  0  0  0  0  0  0  0  0  0
   -3.3876    8.2474    2.4768 H   0  0  0  0  0  0  0  0  0  0  0  0
    4.0574    4.2921   -1.1618 H   0  0  0  0  0  0  0  0  0  0  0  0
    2.6542    3.5080   -0.2705 H   0  0  0  0  0  0  0  0  0  0  0  0
    3.3353    1.2837   -1.2356 H   0  0  0  0  0  0  0  0  0  0  0  0
    5.4253    3.0826   -2.5822 H   0  0  0  0  0  0  0  0  0  0  0  0
    7.0737    1.5665   -2.1822 H   0  0  0  0  0  0  0  0  0  0  0  0
    5.9628    0.1698   -1.9183 H   0  0  0  0  0  0  0  0  0  0  0  0
    6.8041    2.2967   -0.0589 H   0  0  0  0  0  0  0  0  0  0  0  0
    6.1712   -3.0212    3.8574 H   0  0  0  0  0  0  0  0  0  0  0  0
    7.8568   -3.2085    3.3317 H   0  0  0  0  0  0  0  0  0  0  0  0
    5.1348   -0.7896    3.4954 H   0  0  0  0  0  0  0  0  0  0  0  0
    4.7790    1.0253    1.9267 H   0  0  0  0  0  0  0  0  0  0  0  0
    2.5034    1.0549   -5.0113 H   0  0  0  0  0  0  0  0  0  0  0  0
    2.3457    2.6886   -5.7281 H   0  0  0  0  0  0  0  0  0  0  0  0
    2.0461    1.8315   -7.9725 H   0  0  0  0  0  0  0  0  0  0  0  0
    3.3275   -0.5178   -7.3826 H   0  0  0  0  0  0  0  0  0  0  0  0
    1.5904   -1.2879   -9.1010 H   0  0  0  0  0  0  0  0  0  0  0  0
    0.9922   -1.9152   -7.3496 H   0  0  0  0  0  0  0  0  0  0  0  0
    1.9793   -1.5196   -5.8815 H   0  0  0  0  0  0  0  0  0  0  0  0
    0.5175    0.0229   -5.1303 H   0  0  0  0  0  0  0  0  0  0  0  0
   -0.8116   -2.7387   -6.9022 H   0  0  0  0  0  0  0  0  0  0  0  0
   -4.6746    3.4414   -4.8367 H   0  0  0  0  0  0  0  0  0  0  0  0
   -3.1539    3.9372   -5.7594 H   0  0  0  0  0  0  0  0  0  0  0  0
   -1.5532    1.9669   -5.7252 H   0  0  0  0  0  0  0  0  0  0  0  0
  1  2  1  0
  1121  1  0
  2  3  1  0
  2122  1  0
  2123  1  0
  3  4  1  0
  3  5  1  0
  3124  1  0
  4  8  1  0
  5  7  1  0
  5  6  1  0
  5125  1  0
  6 17  1  0
  7  8  1  0
  7126  1  0
  7127  1  0
  8  9  1  0
  8128  1  0
  9 16  1  0
  9 10  1  0
 10 12  1  0
 10 11  2  0
 12 13  2  0
 13 15  1  0
 13 14  1  0
 14129  1  0
 14130  1  0
 15 16  2  0
 15131  1  0
 16132  1  0
 17 20  1  0
 17 19  2  0
 17 18  1  0
 20 21  1  0
 21 22  1  0
 21133  1  0
 21134  1  0
 22 24  1  0
 22 23  1  0
 22135  1  0
 23 27  1  0
 24 25  1  0
 24 26  1  0
 24136  1  0
 25 39  1  0
 26 27  1  0
 26137  1  0
 26138  1  0
 27 28  1  0
 27139  1  0
 28 38  1  0
 28 29  1  0
 29 30  2  0
 29140  1  0
 30 31  1  0
 31 32  1  0
 31 38  2  0
 32 33  2  0
 32 34  1  0
 34 35  2  0
 35 36  1  0
 35 37  1  0
 36141  1  0
 36142  1  0
 37 38  1  0
 37143  1  0
 39 41  2  0
 39 42  1  0
 39 40  1  0
 42 43  1  0
 43 44  1  0
 43144  1  0
 43145  1  0
 44 46  1  0
 44 45  1  0
 44146  1  0
 45 49  1  0
 46 48  1  0
 46 47  1  0
 46147  1  0
 47 59  1  0
 48 49  1  0
 48148  1  0
 48149  1  0
 49 50  1  0
 49150  1  0
 50 51  1  0
 50 58  1  0
 51 53  1  0
 51 52  2  0
 53 54  1  0
 53151  1  0
 54 55  2  0
 54 56  1  0
 56 57  1  0
 56 58  2  0
 57152  1  0
 57153  1  0
 57154  1  0
 58155  1  0
 59 61  2  0
 59 62  1  0
 59 60  1  0
 62 63  1  0
 63 64  1  0
 63156  1  0
 63157  1  0
 64 66  1  0
 64 65  1  0
 64158  1  0
 65 69  1  0
 66 68  1  0
 66 67  1  0
 66159  1  0
 67 80  1  0
 68 69  1  0
 68160  1  0
 68161  1  0
 69 70  1  0
 69162  1  0
 70 79  1  0
 70 71  1  0
 71 72  2  0
 71163  1  0
 72 73  1  0
 73 79  2  0
 73 74  1  0
 74 76  2  0
 74 75  1  0
 75164  1  0
 75165  1  0
 76 77  1  0
 77 78  2  0
 77166  1  0
 78 79  1  0
 80 83  1  0
 80 82  2  0
 80 81  1  0
 83 84  1  0
 84 85  1  0
 84167  1  0
 84168  1  0
 85 87  1  0
 85 86  1  0
 85169  1  0
 86 90  1  0
 87 88  1  0
 87 89  1  0
 87170  1  0
 88 99  1  0
 89 90  1  0
 89171  1  0
 89172  1  0
 90 91  1  0
 90173  1  0
 91 98  1  0
 91 92  1  0
 92 93  2  0
 92 94  1  0
 94 95  2  0
 95 97  1  0
 95 96  1  0
 96174  1  0
 96175  1  0
 97 98  2  0
 97176  1  0
 98177  1  0
 99100  2  0
 99101  1  0
 99102  1  0
102103  1  0
103104  1  0
103178  1  0
103179  1  0
104105  1  0
104106  1  0
104180  1  0
105109  1  0
106108  1  0
106107  1  0
106181  1  0
107182  1  0
108109  1  0
108183  1  0
108184  1  0
109110  1  0
109185  1  0
110111  1  0
110120  1  0
111112  2  0
111186  1  0
112113  1  0
113114  1  0
113120  2  0
114115  2  0
114116  1  0
116117  2  0
117118  1  0
117119  1  0
118187  1  0
118188  1  0
119120  1  0
119189  1  0
M  CHG  5  18  -1  40  -1  60  -1  81  -1 101  -1
M  END
$$$$
DNA (5'-D(*CP*GP*TP*AP*CP*G)-3')
     RDKit          3D

189203  0  0  0  0  0  0  0  0999 V2000
   -4.3894    3.5780   -6.9985 O   0  0  0  0  0  0  0  0  0  0  0  0
   -3.3432    3.0649   -6.2509 C   0  0  0  0  0  0  0  0  0  0  0  0
   -2.1860    4.0052   -6.2346 C   0  0  0  0  0  0  0  0  0  0  0  0
   -1.0959    3.5439   -5.5135 O   0  0  0  0  0  0  0  0  0  0  0  0
   -2.5834    5.3266   -5.5760 C   0  0  0  0  0  0  0  0  0  0  0  0
   -3.1552    5.0380   -4.3700 O   0  0  0  0  0  0  0  0  0  0  0  0
   -1.1425    5.7921   -5.2384 C   0  0  0  0  0  0  0  0  0  0  0  0
   -0.7139    4.4754   -4.5875 C   0  0  0  0  0  0  0  0  0  0  0  0
    0.6629    4.4220   -4.2376 N   0  0  0  0  0  0  0  0  0  0  0  0
    1.6466    4.4877   -5.1295 C   0  0  0  0  0  0  0  0  0  0  0  0
    1.4016    4.6082   -6.3596 O   0  0  0  0  0  0  0  0  0  0  0  0
    2.9674    4.4315   -4.7934 N   0  0  0  0  0  0  0  0  0  0  0  0
    3.3518    4.3030   -3.5058 C   0  0  0  0  0  0  0  0  0  0  0  0
    4.7391    4.2425   -3.1619 N   0  0  0  0  0  0  0  0  0  0  0  0
    2.3523    4.2313   -2.5457 C   0  0  0  0  0  0  0  0  0  0  0  0
    1.0351    4.2924   -2.9327 C   0  0  0  0  0  0  0  0  0  0  0  0
   -4.5288    5.8825   -3.9653 P   0  0  0  0  0  0  0  0  0  0  0  0
   -5.8106    5.3838   -4.9448 O   0  0  0  0  0  0  0  0  0  0  0  0
   -4.3443    7.3695   -3.9866 O   0  0  0  0  0  0  0  0  0  0  0  0
   -4.9507    5.3966   -2.3753 O   0  0  0  0  0  0  0  0  0  0  0  0
   -4.5055    6.3299   -1.4274 C   0  0  0  0  0  0  0  0  0  0  0  0
   -4.5595    5.6067   -0.0824 C   0  0  0  0  0  0  0  0  0  0  0  0
   -4.1569    6.3812    0.9763 O   0  0  0  0  0  0  0  0  0  0  0  0
   -3.5804    4.4490   -0.1232 C   0  0  0  0  0  0  0  0  0  0  0  0
   -3.9544    3.3568    0.6160 O   0  0  0  0  0  0  0  0  0  0  0  0
   -2.3113    5.1288    0.3290 C   0  0  0  0  0  0  0  0  0  0  0  0
   -2.7723    6.3519    1.0661 C   0  0  0  0  0  0  0  0  0  0  0  0
   -2.2722    7.5957    0.5296 N   0  0  0  0  0  0  0  0  0  0  0  0
   -2.9990    8.7296    0.2942 C   0  0  0  0  0  0  0  0  0  0  0  0
   -2.1968    9.6828   -0.2143 N   0  0  0  0  0  0  0  0  0  0  0  0
   -0.9474    9.1962   -0.3191 C   0  0  0  0  0  0  0  0  0  0  0  0
    0.2220    9.7756   -0.7770 C   0  0  0  0  0  0  0  0  0  0  0  0
    0.2322   10.9556   -1.1904 O   0  0  0  0  0  0  0  0  0  0  0  0
    1.3426    9.0131   -0.7557 N   0  0  0  0  0  0  0  0  0  0  0  0
    1.2995    7.7302   -0.2980 C   0  0  0  0  0  0  0  0  0  0  0  0
    2.5238    7.0030   -0.3103 N   0  0  0  0  0  0  0  0  0  0  0  0
    0.1368    7.1993    0.1414 N   0  0  0  0  0  0  0  0  0  0  0  0
   -1.0134    7.8986    0.1480 C   0  0  0  0  0  0  0  0  0  0  0  0
   -4.2298    2.0864   -0.4734 P   0  0  0  0  0  0  0  0  0  0  0  0
   -2.9993    2.1472   -1.6562 O   0  0  0  0  0  0  0  0  0  0  0  0
   -5.5378    2.2788   -1.2302 O   0  0  0  0  0  0  0  0  0  0  0  0
   -4.1874    0.5740    0.2735 O   0  0  0  0  0  0  0  0  0  0  0  0
   -3.0918   -0.1499   -0.1924 C   0  0  0  0  0  0  0  0  0  0  0  0
   -3.2305   -1.6276   -0.0822 C   0  0  0  0  0  0  0  0  0  0  0  0
   -2.0863   -2.3016   -0.5769 O   0  0  0  0  0  0  0  0  0  0  0  0
   -3.2861   -2.1741    1.3136 C   0  0  0  0  0  0  0  0  0  0  0  0
   -2.1977   -1.8028    2.0871 O   0  0  0  0  0  0  0  0  0  0  0  0
   -3.1072   -3.6774    1.0190 C   0  0  0  0  0  0  0  0  0  0  0  0
   -2.4332   -3.6283   -0.3361 C   0  0  0  0  0  0  0  0  0  0  0  0
   -1.2645   -4.4918   -0.3520 N   0  0  0  0  0  0  0  0  0  0  0  0
   -0.0689   -4.0106   -0.7868 C   0  0  0  0  0  0  0  0  0  0  0  0
    0.0228   -2.8254   -1.1756 O   0  0  0  0  0  0  0  0  0  0  0  0
    1.0190   -4.8131   -0.7992 N   0  0  0  0  0  0  0  0  0  0  0  0
    0.9172   -6.1030   -0.3764 C   0  0  0  0  0  0  0  0  0  0  0  0
    1.9509   -6.8512   -0.3928 O   0  0  0  0  0  0  0  0  0  0  0  0
   -0.3073   -6.6019    0.0711 C   0  0  0  0  0  0  0  0  0  0  0  0
   -0.3831   -8.0199    0.5286 C   0  0  0  0  0  0  0  0  0  0  0  0
   -1.4009   -5.7604    0.0725 C   0  0  0  0  0  0  0  0  0  0  0  0
   -2.6652   -1.3955    3.6657 P   0  0  0  0  0  0  0  0  0  0  0  0
   -1.5611   -0.2612    4.2414 O   0  0  0  0  0  0  0  0  0  0  0  0
   -4.0657   -0.8438    3.6989 O   0  0  0  0  0  0  0  0  0  0  0  0
   -2.6440   -2.7763    4.6611 O   0  0  0  0  0  0  0  0  0  0  0  0
   -1.9171   -2.4619    5.7987 C   0  0  0  0  0  0  0  0  0  0  0  0
   -1.7535   -3.7151    6.6350 C   0  0  0  0  0  0  0  0  0  0  0  0
   -2.9335   -4.2650    7.0358 O   0  0  0  0  0  0  0  0  0  0  0  0
   -0.9309   -4.7073    5.8922 C   0  0  0  0  0  0  0  0  0  0  0  0
   -1.0182   -4.5158    4.5290 O   0  0  0  0  0  0  0  0  0  0  0  0
   -1.6257   -6.0182    6.2218 C   0  0  0  0  0  0  0  0  0  0  0  0
   -2.9780   -5.5911    6.6433 C   0  0  0  0  0  0  0  0  0  0  0  0
   -3.9279   -5.7665    5.5850 N   0  0  0  0  0  0  0  0  0  0  0  0
   -3.9195   -6.5392    4.4893 C   0  0  0  0  0  0  0  0  0  0  0  0
   -5.0432   -6.3751    3.7682 N   0  0  0  0  0  0  0  0  0  0  0  0
   -5.7931   -5.4711    4.4211 C   0  0  0  0  0  0  0  0  0  0  0  0
   -7.0329   -4.8896    4.1986 C   0  0  0  0  0  0  0  0  0  0  0  0
   -7.7941   -5.2253    3.0672 N   0  0  0  0  0  0  0  0  0  0  0  0
   -7.5141   -3.9926    5.0718 N   0  0  0  0  0  0  0  0  0  0  0  0
   -6.8428   -3.6135    6.1852 C   0  0  0  0  0  0  0  0  0  0  0  0
   -5.6502   -4.1808    6.3875 N   0  0  0  0  0  0  0  0  0  0  0  0
   -5.1118   -5.0872    5.5484 C   0  0  0  0  0  0  0  0  0  0  0  0
    0.5064   -4.4342    3.7974 P   0  0  0  0  0  0  0  0  0  0  0  0
    1.6288   -4.2054    5.0694 O   0  0  0  0  0  0  0  0  0  0  0  0
    0.7843   -5.6894    3.0275 O   0  0  0  0  0  0  0  0  0  0  0  0
    0.5463   -3.0790    2.7895 O   0  0  0  0  0  0  0  0  0  0  0  0
    1.8410   -2.5690    2.6223 C   0  0  0  0  0  0  0  0  0  0  0  0
    1.8077   -1.2817    1.8220 C   0  0  0  0  0  0  0  0  0  0  0  0
    1.0436   -0.3097    2.4591 O   0  0  0  0  0  0  0  0  0  0  0  0
    3.1726   -0.7345    1.6298 C   0  0  0  0  0  0  0  0  0  0  0  0
    3.3638   -0.4140    0.2895 O   0  0  0  0  0  0  0  0  0  0  0  0
    3.2328    0.4607    2.5222 C   0  0  0  0  0  0  0  0  0  0  0  0
    1.9297    0.3893    3.2788 C   0  0  0  0  0  0  0  0  0  0  0  0
    1.4186    1.6939    3.6406 N   0  0  0  0  0  0  0  0  0  0  0  0
    0.3806    2.2468    2.9476 C   0  0  0  0  0  0  0  0  0  0  0  0
   -0.1516    1.6375    1.9902 O   0  0  0  0  0  0  0  0  0  0  0  0
   -0.0513    3.4580    3.3211 N   0  0  0  0  0  0  0  0  0  0  0  0
    0.5164    4.1179    4.3490 C   0  0  0  0  0  0  0  0  0  0  0  0
    0.0688    5.4101    4.7595 N   0  0  0  0  0  0  0  0  0  0  0  0
    1.5786    3.5727    5.0727 C   0  0  0  0  0  0  0  0  0  0  0  0
    2.0042    2.3272    4.6695 C   0  0  0  0  0  0  0  0  0  0  0  0
    4.7367   -1.0515   -0.4011 P   0  0  0  0  0  0  0  0  0  0  0  0
    5.3674   -2.1777    0.3767 O   0  0  0  0  0  0  0  0  0  0  0  0
    5.8588    0.2276   -0.6121 O   0  0  0  0  0  0  0  0  0  0  0  0
    4.3445   -1.6606   -1.9309 O   0  0  0  0  0  0  0  0  0  0  0  0
    3.7364   -0.7480   -2.7558 C   0  0  0  0  0  0  0  0  0  0  0  0
    3.4163   -1.3823   -4.0884 C   0  0  0  0  0  0  0  0  0  0  0  0
    4.5906   -1.8160   -4.6768 O   0  0  0  0  0  0  0  0  0  0  0  0
    2.4675   -2.5290   -3.9889 C   0  0  0  0  0  0  0  0  0  0  0  0
    1.2249   -2.2259   -4.5262 O   0  0  0  0  0  0  0  0  0  0  0  0
    3.2068   -3.5961   -4.8050 C   0  0  0  0  0  0  0  0  0  0  0  0
    4.6404   -3.1729   -4.5210 C   0  0  0  0  0  0  0  0  0  0  0  0
    5.5619   -3.8472   -5.3744 N   0  0  0  0  0  0  0  0  0  0  0  0
    5.3862   -4.9006   -6.2152 C   0  0  0  0  0  0  0  0  0  0  0  0
    6.5629   -5.1959   -6.8233 N   0  0  0  0  0  0  0  0  0  0  0  0
    7.4934   -4.3435   -6.3823 C   0  0  0  0  0  0  0  0  0  0  0  0
    8.8536   -4.1893   -6.6629 C   0  0  0  0  0  0  0  0  0  0  0  0
    9.4281   -4.9659   -7.4964 O   0  0  0  0  0  0  0  0  0  0  0  0
    9.5593   -3.2010   -6.0370 N   0  0  0  0  0  0  0  0  0  0  0  0
    8.9237   -2.3834   -5.1500 C   0  0  0  0  0  0  0  0  0  0  0  0
    9.6419   -1.3441   -4.4817 N   0  0  0  0  0  0  0  0  0  0  0  0
    7.6056   -2.5509   -4.8932 N   0  0  0  0  0  0  0  0  0  0  0  0
    6.8671   -3.5119   -5.4860 C   0  0  0  0  0  0  0  0  0  0  0  0
   -5.1594    2.9751   -7.0411 H   0  0  0  0  0  0  0  0  0  0  0  0
   -3.0208    2.0508   -6.5469 H   0  0  0  0  0  0  0  0  0  0  0  0
   -3.7158    2.9877   -5.2022 H   0  0  0  0  0  0  0  0  0  0  0  0
   -1.8572    4.1514   -7.2808 H   0  0  0  0  0  0  0  0  0  0  0  0
   -3.0778    6.0304   -6.2258 H   0  0  0  0  0  0  0  0  0  0  0  0
   -1.1358    6.6419   -4.5625 H   0  0  0  0  0  0  0  0  0  0  0  0
   -0.6134    5.9242   -6.2000 H   0  0  0  0  0  0  0  0  0  0  0  0
   -1.3634    4.3981   -3.6849 H   0  0  0  0  0  0  0  0  0  0  0  0
    5.2175    4.9646   -2.5849 H   0  0  0  0  0  0  0  0  0  0  0  0
    5.2560    3.4103   -3.5348 H   0  0  0  0  0  0  0  0  0  0  0  0
    2.6866    4.1294   -1.5232 H   0  0  0  0  0  0  0  0  0  0  0  0
    0.2970    4.2310   -2.1308 H   0  0  0  0  0  0  0  0  0  0  0  0
   -5.2618    7.1352   -1.3863 H   0  0  0  0  0  0  0  0  0  0  0  0
   -3.5071    6.7009   -1.6742 H   0  0  0  0  0  0  0  0  0  0  0  0
   -5.6022    5.3068    0.0549 H   0  0  0  0  0  0  0  0  0  0  0  0
   -3.5372    4.1286   -1.1903 H   0  0  0  0  0  0  0  0  0  0  0  0
   -1.6703    4.4589    0.9347 H   0  0  0  0  0  0  0  0  0  0  0  0
   -1.7828    5.4136   -0.6300 H   0  0  0  0  0  0  0  0  0  0  0  0
   -2.4180    6.3026    2.1385 H   0  0  0  0  0  0  0  0  0  0  0  0
   -4.0762    8.7972    0.5083 H   0  0  0  0  0  0  0  0  0  0  0  0
    2.9591    6.6513    0.5699 H   0  0  0  0  0  0  0  0  0  0  0  0
    2.9493    6.8515   -1.2631 H   0  0  0  0  0  0  0  0  0  0  0  0
    0.1577    6.2148    0.4829 H   0  0  0  0  0  0  0  0  0  0  0  0
   -2.1978    0.2418    0.3497 H   0  0  0  0  0  0  0  0  0  0  0  0
   -2.9858    0.1137   -1.2636 H   0  0  0  0  0  0  0  0  0  0  0  0
   -4.0927   -2.0264   -0.6567 H   0  0  0  0  0  0  0  0  0  0  0  0
   -4.2342   -2.0116    1.8498 H   0  0  0  0  0  0  0  0  0  0  0  0
   -4.1038   -4.1224    0.9055 H   0  0  0  0  0  0  0  0  0  0  0  0
   -2.4774   -4.1446    1.8007 H   0  0  0  0  0  0  0  0  0  0  0  0
   -3.1363   -3.9183   -1.1391 H   0  0  0  0  0  0  0  0  0  0  0  0
    1.9547   -4.4738   -1.1283 H   0  0  0  0  0  0  0  0  0  0  0  0
   -0.7741   -8.6098   -0.3412 H   0  0  0  0  0  0  0  0  0  0  0  0
    0.6478   -8.3638    0.8107 H   0  0  0  0  0  0  0  0  0  0  0  0
   -0.9959   -8.1122    1.4308 H   0  0  0  0  0  0  0  0  0  0  0  0
   -2.3551   -6.1668    0.4249 H   0  0  0  0  0  0  0  0  0  0  0  0
   -2.4211   -1.6536    6.3642 H   0  0  0  0  0  0  0  0  0  0  0  0
   -0.8898   -2.0959    5.5571 H   0  0  0  0  0  0  0  0  0  0  0  0
   -1.2318   -3.3665    7.5747 H   0  0  0  0  0  0  0  0  0  0  0  0
    0.1249   -4.7575    6.2458 H   0  0  0  0  0  0  0  0  0  0  0  0
   -1.1162   -6.5168    7.0886 H   0  0  0  0  0  0  0  0  0  0  0  0
   -1.6126   -6.7276    5.3982 H   0  0  0  0  0  0  0  0  0  0  0  0
   -3.3016   -6.2233    7.5230 H   0  0  0  0  0  0  0  0  0  0  0  0
   -3.1356   -7.2158    4.1895 H   0  0  0  0  0  0  0  0  0  0  0  0
   -7.3940   -5.5793    2.1609 H   0  0  0  0  0  0  0  0  0  0  0  0
   -8.8392   -5.1273    3.0935 H   0  0  0  0  0  0  0  0  0  0  0  0
   -7.2420   -2.8858    6.8871 H   0  0  0  0  0  0  0  0  0  0  0  0
    2.2081   -2.3023    3.6353 H   0  0  0  0  0  0  0  0  0  0  0  0
    2.5321   -3.2833    2.1344 H   0  0  0  0  0  0  0  0  0  0  0  0
    1.3288   -1.5121    0.8510 H   0  0  0  0  0  0  0  0  0  0  0  0
    3.9697   -1.4426    1.9836 H   0  0  0  0  0  0  0  0  0  0  0  0
    3.2111    1.4224    1.9669 H   0  0  0  0  0  0  0  0  0  0  0  0
    4.0719    0.4125    3.2448 H   0  0  0  0  0  0  0  0  0  0  0  0
    2.0616   -0.2340    4.1964 H   0  0  0  0  0  0  0  0  0  0  0  0
   -0.2285    5.5567    5.7552 H   0  0  0  0  0  0  0  0  0  0  0  0
    0.0243    6.2311    4.0893 H   0  0  0  0  0  0  0  0  0  0  0  0
    2.0490    4.0735    5.8949 H   0  0  0  0  0  0  0  0  0  0  0  0
    2.8301    1.8465    5.1953 H   0  0  0  0  0  0  0  0  0  0  0  0
    2.7760   -0.3586   -2.3602 H   0  0  0  0  0  0  0  0  0  0  0  0
    4.3733    0.1407   -2.9461 H   0  0  0  0  0  0  0  0  0  0  0  0
    2.9743   -0.6080   -4.7764 H   0  0  0  0  0  0  0  0  0  0  0  0
    2.4005   -2.8984   -2.9291 H   0  0  0  0  0  0  0  0  0  0  0  0
    1.0492   -2.7211   -5.3453 H   0  0  0  0  0  0  0  0  0  0  0  0
    3.0482   -4.5888   -4.3283 H   0  0  0  0  0  0  0  0  0  0  0  0
    2.9410   -3.5817   -5.8629 H   0  0  0  0  0  0  0  0  0  0  0  0
    4.8145   -3.3917   -3.4365 H   0  0  0  0  0  0  0  0  0  0  0  0
    4.4209   -5.3976   -6.3433 H   0  0  0  0  0  0  0  0  0  0  0  0
   10.4702   -0.8690   -4.8883 H   0  0  0  0  0  0  0  0  0  0  0  0
    9.3225   -1.0354   -3.5222 H   0  0  0  0  0  0  0  0  0  0  0  0
    7.1506   -1.8957   -4.2007 H   0  0  0  0  0  0  0  0  0  0  0  0
  1  2  1  0
  1121  1  0
  2  3  1  0
  2122  1  0
  2123  1  0
  3  4  1  0
  3  5  1  0
  3124  1  0
  4  8  1  0
  5  7  1  0
  5  6  1  0
  5125  1  0
  6 17  1  0
  7  8  1  0
  7126  1  0
  7127  1  0
  8  9  1  0
  8128  1  0
  9 16  1  0
  9 10  1  0
 10 12  1  0
 10 11  2  0
 12 13  2  0
 13 15  1  0
 13 14  1  0
 14129  1  0
 14130  1  0
 15 16  2  0
 15131  1  0
 16132  1  0
 17 20  1  0
 17 19  2  0
 17 18  1  0
 20 21  1  0
 21 22  1  0
 21133  1  0
 21134  1  0
 22 24  1  0
 22 23  1  0
 22135  1  0
 23 27  1  0
 24 25  1  0
 24 26  1  0
 24136  1  0
 25 39  1  0
 26 27  1  0
 26137  1  0
 26138  1  0
 27 28  1  0
 27139  1  0
 28 38  1  0
 28 29  1  0
 29 30  2  0
 29140  1  0
 30 31  1  0
 31 32  1  0
 31 38  2  0
 32 33  2  0
 32 34  1  0
 34 35  2  0
 35 36  1  0
 35 37  1  0
 36141  1  0
 36142  1  0
 37 38  1  0
 37143  1  0
 39 41  2  0
 39 42  1  0
 39 40  1  0
 42 43  1  0
 43 44  1  0
 43144  1  0
 43145  1  0
 44 46  1  0
 44 45  1  0
 44146  1  0
 45 49  1  0
 46 48  1  0
 46 47  1  0
 46147  1  0
 47 59  1  0
 48 49  1  0
 48148  1  0
 48149  1  0
 49 50  1  0
 49150  1  0
 50 51  1  0
 50 58  1  0
 51 53  1  0
 51 52  2  0
 53 54  1  0
 53151  1  0
 54 55  2  0
 54 56  1  0
 56 57  1  0
 56 58  2  0
 57152  1  0
 57153  1  0
 57154  1  0
 58155  1  0
 59 61  2  0
 59 62  1  0
 59 60  1  0
 62 63  1  0
 63 64  1  0
 63156  1  0
 63157  1  0
 64 66  1  0
 64 65  1  0
 64158  1  0
 65 69  1  0
 66 68  1  0
 66 67  1  0
 66159  1  0
 67 80  1  0
 68 69  1  0
 68160  1  0
 68161  1  0
 69 70  1  0
 69162  1  0
 70 79  1  0
 70 71  1  0
 71 72  2  0
 71163  1  0
 72 73  1  0
 73 79  2  0
 73 74  1  0
 74 76  2  0
 74 75  1  0
 75164  1  0
 75165  1  0
 76 77  1  0
 77 78  2  0
 77166  1  0
 78 79  1  0
 80 83  1  0
 80 82  2  0
 80 81  1  0
 83 84  1  0
 84 85  1  0
 84167  1  0
 84168  1  0
 85 87  1  0
 85 86  1  0
 85169  1  0
 86 90  1  0
 87 88  1  0
 87 89  1  0
 87170  1  0
 88 99  1  0
 89 90  1  0
 89171  1  0
 89172  1  0
 90 91  1  0
 90173  1  0
 91 98  1  0
 91 92  1  0
 92 93  2  0
 92 94  1  0
 94 95  2  0
 95 97  1  0
 95 96  1  0
 96174  1  0
 96175  1  0
 97 98  2  0
 97176  1  0
 98177  1  0
 99100  2  0
 99101  1  0
 99102  1  0
102103  1  0
103104  1  0
103178  1  0
103179  1  0
104105  1  0
104106  1  0
104180  1  0
105109  1  0
106108  1  0
106107  1  0
106181  1  0
107182  1  0
108109  1  0
108183  1  0
108184  1  0
109110  1  0
109185  1  0
110111  1  0
110120  1  0
111112  2  0
111186  1  0
112113  1  0
113114  1  0
113120  2  0
114115  2  0
114116  1  0
116117  2  0
117118  1  0
117119  1  0
118187  1  0
118188  1  0
119120  1  0
119189  1  0
M  CHG  5  18  -1  40  -1  60  -1  81  -1 101  -1
M  END
$$$$
DNA (5'-D(*CP*GP*TP*AP*CP*G)-3')
     RDKit          3D

189203  0  0  0  0  0  0  0  0999 V2000
   -0.4261   -4.3598    6.7114 O   0  0  0  0  0  0  0  0  0  0  0  0
    0.6848   -3.8322    7.4017 C   0  0  0  0  0  0  0  0  0  0  0  0
    1.4336   -2.9650    6.4337 C   0  0  0  0  0  0  0  0  0  0  0  0
    2.5583   -2.3851    7.0211 O   0  0  0  0  0  0  0  0  0  0  0  0
    2.0923   -3.8162    5.3599 C   0  0  0  0  0  0  0  0  0  0  0  0
    1.1254   -4.2185    4.4730 O   0  0  0  0  0  0  0  0  0  0  0  0
    3.0646   -2.7934    4.7755 C   0  0  0  0  0  0  0  0  0  0  0  0
    3.4292   -2.0180    6.0245 C   0  0  0  0  0  0  0  0  0  0  0  0
    3.4813   -0.5901    5.8095 N   0  0  0  0  0  0  0  0  0  0  0  0
    4.5044   -0.0466    5.1234 C   0  0  0  0  0  0  0  0  0  0  0  0
    5.3887   -0.8255    4.6905 O   0  0  0  0  0  0  0  0  0  0  0  0
    4.5901    1.2859    4.9012 N   0  0  0  0  0  0  0  0  0  0  0  0
    3.6209    2.1169    5.3791 C   0  0  0  0  0  0  0  0  0  0  0  0
    3.6527    3.5163    5.1829 N   0  0  0  0  0  0  0  0  0  0  0  0
    2.5580    1.5552    6.0917 C   0  0  0  0  0  0  0  0  0  0  0  0
    2.5003    0.1849    6.3017 C   0  0  0  0  0  0  0  0  0  0  0  0
    1.0981   -5.8761    4.2295 P   0  0  0  0  0  0  0  0  0  0  0  0
    1.2678   -6.7325    5.6764 O   0  0  0  0  0  0  0  0  0  0  0  0
    2.2254   -6.2828    3.2907 O   0  0  0  0  0  0  0  0  0  0  0  0
   -0.4107   -6.2783    3.5372 O   0  0  0  0  0  0  0  0  0  0  0  0
   -0.2461   -7.0410    2.4060 C   0  0  0  0  0  0  0  0  0  0  0  0
   -1.5822   -7.3940    1.8227 C   0  0  0  0  0  0  0  0  0  0  0  0
   -1.4669   -8.1688    0.6711 O   0  0  0  0  0  0  0  0  0  0  0  0
   -2.4670   -6.2260    1.5238 C   0  0  0  0  0  0  0  0  0  0  0  0
   -1.8722   -5.0065    1.8139 O   0  0  0  0  0  0  0  0  0  0  0  0
   -2.7715   -6.3658    0.0300 C   0  0  0  0  0  0  0  0  0  0  0  0
   -1.7256   -7.3316   -0.4181 C   0  0  0  0  0  0  0  0  0  0  0  0
   -2.0640   -8.1464   -1.5421 N   0  0  0  0  0  0  0  0  0  0  0  0
   -1.5810   -9.4151   -1.7037 C   0  0  0  0  0  0  0  0  0  0  0  0
   -2.0522   -9.9474   -2.8347 N   0  0  0  0  0  0  0  0  0  0  0  0
   -2.8399   -9.0664   -3.4364 C   0  0  0  0  0  0  0  0  0  0  0  0
   -3.5717   -9.0668   -4.5900 C   0  0  0  0  0  0  0  0  0  0  0  0
   -3.5699  -10.0858   -5.3299 O   0  0  0  0  0  0  0  0  0  0  0  0
   -4.3052   -7.9880   -4.9607 N   0  0  0  0  0  0  0  0  0  0  0  0
   -4.2709   -6.9249   -4.1326 C   0  0  0  0  0  0  0  0  0  0  0  0
   -5.0512   -5.7951   -4.5310 N   0  0  0  0  0  0  0  0  0  0  0  0
   -3.5576   -6.9021   -2.9923 N   0  0  0  0  0  0  0  0  0  0  0  0
   -2.8346   -7.9432   -2.6105 C   0  0  0  0  0  0  0  0  0  0  0  0
   -2.9223   -4.0761    2.7616 P   0  0  0  0  0  0  0  0  0  0  0  0
   -2.0636   -3.5472    4.1176 O   0  0  0  0  0  0  0  0  0  0  0  0
   -4.1557   -4.8531    3.1550 O   0  0  0  0  0  0  0  0  0  0  0  0
   -3.3189   -2.7190    1.8416 O   0  0  0  0  0  0  0  0  0  0  0  0
   -4.3410   -1.9610    2.3511 C   0  0  0  0  0  0  0  0  0  0  0  0
   -4.7566   -0.8604    1.3905 C   0  0  0  0  0  0  0  0  0  0  0  0
   -5.1818   -1.4359    0.1937 O   0  0  0  0  0  0  0  0  0  0  0  0
   -3.6333    0.0975    1.0665 C   0  0  0  0  0  0  0  0  0  0  0  0
   -2.4463   -0.5981    1.1923 O   0  0  0  0  0  0  0  0  0  0  0  0
   -3.9633    0.3219   -0.4241 C   0  0  0  0  0  0  0  0  0  0  0  0
   -4.1828   -1.1649   -0.7366 C   0  0  0  0  0  0  0  0  0  0  0  0
   -4.5022   -1.4329   -2.0849 N   0  0  0  0  0  0  0  0  0  0  0  0
   -5.6280   -1.0935   -2.7021 C   0  0  0  0  0  0  0  0  0  0  0  0
   -6.5119   -0.4757   -2.0523 O   0  0  0  0  0  0  0  0  0  0  0  0
   -5.8626   -1.3872   -4.0083 N   0  0  0  0  0  0  0  0  0  0  0  0
   -4.9700   -2.0423   -4.7663 C   0  0  0  0  0  0  0  0  0  0  0  0
   -5.1640   -2.3268   -5.9813 O   0  0  0  0  0  0  0  0  0  0  0  0
   -3.7872   -2.4109   -4.1567 C   0  0  0  0  0  0  0  0  0  0  0  0
   -2.7145   -3.1439   -4.8928 C   0  0  0  0  0  0  0  0  0  0  0  0
   -3.5777   -2.1016   -2.8383 C   0  0  0  0  0  0  0  0  0  0  0  0
   -1.2599    0.1894    2.0838 P   0  0  0  0  0  0  0  0  0  0  0  0
   -0.7565   -0.8583    3.3119 O   0  0  0  0  0  0  0  0  0  0  0  0
   -1.7718    1.4431    2.7362 O   0  0  0  0  0  0  0  0  0  0  0  0
    0.1177    0.4834    1.1186 O   0  0  0  0  0  0  0  0  0  0  0  0
    1.1871    0.8482    1.8959 C   0  0  0  0  0  0  0  0  0  0  0  0
    2.3701    1.0351    0.9349 C   0  0  0  0  0  0  0  0  0  0  0  0
    3.5039    1.4014    1.5994 O   0  0  0  0  0  0  0  0  0  0  0  0
    2.1199    2.0959   -0.0756 C   0  0  0  0  0  0  0  0  0  0  0  0
    2.8000    1.8527   -1.2576 O   0  0  0  0  0  0  0  0  0  0  0  0
    2.7203    3.3384    0.5754 C   0  0  0  0  0  0  0  0  0  0  0  0
    3.7838    2.7263    1.4354 C   0  0  0  0  0  0  0  0  0  0  0  0
    5.0444    2.8146    0.7104 N   0  0  0  0  0  0  0  0  0  0  0  0
    5.6305    1.8223   -0.0125 C   0  0  0  0  0  0  0  0  0  0  0  0
    6.7880    2.2657   -0.5447 N   0  0  0  0  0  0  0  0  0  0  0  0
    6.9440    3.5472   -0.1610 C   0  0  0  0  0  0  0  0  0  0  0  0
    7.9478    4.4497   -0.4298 C   0  0  0  0  0  0  0  0  0  0  0  0
    9.0737    4.1234   -1.2318 N   0  0  0  0  0  0  0  0  0  0  0  0
    7.8159    5.6807    0.1086 N   0  0  0  0  0  0  0  0  0  0  0  0
    6.7669    6.0350    0.8728 C   0  0  0  0  0  0  0  0  0  0  0  0
    5.8157    5.1379    1.1116 N   0  0  0  0  0  0  0  0  0  0  0  0
    5.8562    3.8899    0.6221 C   0  0  0  0  0  0  0  0  0  0  0  0
    1.7821    1.9261   -2.6053 P   0  0  0  0  0  0  0  0  0  0  0  0
    0.1718    1.7375   -2.1590 O   0  0  0  0  0  0  0  0  0  0  0  0
    2.1997    0.8259   -3.5630 O   0  0  0  0  0  0  0  0  0  0  0  0
    2.0490    3.4429   -3.3258 O   0  0  0  0  0  0  0  0  0  0  0  0
    0.8606    4.1178   -3.5938 C   0  0  0  0  0  0  0  0  0  0  0  0
    1.1352    5.4537   -4.2606 C   0  0  0  0  0  0  0  0  0  0  0  0
    1.8009    5.1814   -5.4367 O   0  0  0  0  0  0  0  0  0  0  0  0
    1.9764    6.3609   -3.4252 C   0  0  0  0  0  0  0  0  0  0  0  0
    1.3961    7.5840   -3.1911 O   0  0  0  0  0  0  0  0  0  0  0  0
    3.1854    6.6057   -4.3384 C   0  0  0  0  0  0  0  0  0  0  0  0
    2.7008    6.1859   -5.6967 C   0  0  0  0  0  0  0  0  0  0  0  0
    3.7963    5.6151   -6.4741 N   0  0  0  0  0  0  0  0  0  0  0  0
    4.1510    6.0619   -7.6816 C   0  0  0  0  0  0  0  0  0  0  0  0
    3.5222    7.0268   -8.2002 O   0  0  0  0  0  0  0  0  0  0  0  0
    5.1767    5.4952   -8.3610 N   0  0  0  0  0  0  0  0  0  0  0  0
    5.8670    4.4708   -7.8448 C   0  0  0  0  0  0  0  0  0  0  0  0
    6.9427    3.8733   -8.5524 N   0  0  0  0  0  0  0  0  0  0  0  0
    5.5132    3.9875   -6.5831 C   0  0  0  0  0  0  0  0  0  0  0  0
    4.4629    4.5860   -5.9151 C   0  0  0  0  0  0  0  0  0  0  0  0
    1.4416    8.0935   -1.6029 P   0  0  0  0  0  0  0  0  0  0  0  0
    1.6577    9.6092   -1.6330 O   0  0  0  0  0  0  0  0  0  0  0  0
    2.8140    7.4753   -0.7996 O   0  0  0  0  0  0  0  0  0  0  0  0
    0.0641    7.7658   -0.7183 O   0  0  0  0  0  0  0  0  0  0  0  0
    0.2562    6.8487    0.2868 C   0  0  0  0  0  0  0  0  0  0  0  0
   -1.0159    6.7131    1.0825 C   0  0  0  0  0  0  0  0  0  0  0  0
   -2.1020    6.2828    0.3219 O   0  0  0  0  0  0  0  0  0  0  0  0
   -0.9145    5.6900    2.1870 C   0  0  0  0  0  0  0  0  0  0  0  0
   -0.5375    6.3032    3.3590 O   0  0  0  0  0  0  0  0  0  0  0  0
   -2.3578    5.2337    2.3389 C   0  0  0  0  0  0  0  0  0  0  0  0
   -3.0590    6.1040    1.3175 C   0  0  0  0  0  0  0  0  0  0  0  0
   -4.2899    5.5366    0.8502 N   0  0  0  0  0  0  0  0  0  0  0  0
   -5.4565    5.6406    1.5162 C   0  0  0  0  0  0  0  0  0  0  0  0
   -6.4260    5.0245    0.8535 N   0  0  0  0  0  0  0  0  0  0  0  0
   -5.9060    4.5041   -0.2633 C   0  0  0  0  0  0  0  0  0  0  0  0
   -6.4612    3.7775   -1.2905 C   0  0  0  0  0  0  0  0  0  0  0  0
   -7.7019    3.5073   -1.2420 O   0  0  0  0  0  0  0  0  0  0  0  0
   -5.6668    3.3928   -2.2878 N   0  0  0  0  0  0  0  0  0  0  0  0
   -4.3415    3.7122   -2.2865 C   0  0  0  0  0  0  0  0  0  0  0  0
   -3.4800    3.3063   -3.3480 N   0  0  0  0  0  0  0  0  0  0  0  0
   -3.7967    4.4314   -1.2682 N   0  0  0  0  0  0  0  0  0  0  0  0
   -4.5713    4.8270   -0.2606 C   0  0  0  0  0  0  0  0  0  0  0  0
   -1.2391   -4.3636    7.2649 H   0  0  0  0  0  0  0  0  0  0  0  0
    1.3277   -4.7226    7.6488 H   0  0  0  0  0  0  0  0  0  0  0  0
    0.4021   -3.3074    8.3177 H   0  0  0  0  0  0  0  0  0  0  0  0
    0.7862   -2.2351    5.9195 H   0  0  0  0  0  0  0  0  0  0  0  0
    2.6806   -4.6531    5.7814 H   0  0  0  0  0  0  0  0  0  0  0  0
    2.5652   -2.1026    4.0753 H   0  0  0  0  0  0  0  0  0  0  0  0
    3.9094   -3.2614    4.2717 H   0  0  0  0  0  0  0  0  0  0  0  0
    4.4423   -2.4078    6.3396 H   0  0  0  0  0  0  0  0  0  0  0  0
    2.8147    3.9586    4.7562 H   0  0  0  0  0  0  0  0  0  0  0  0
    4.4543    4.1293    5.4361 H   0  0  0  0  0  0  0  0  0  0  0  0
    1.7584    2.1911    6.4924 H   0  0  0  0  0  0  0  0  0  0  0  0
    1.6553   -0.2059    6.8615 H   0  0  0  0  0  0  0  0  0  0  0  0
    0.1960   -8.0182    2.7609 H   0  0  0  0  0  0  0  0  0  0  0  0
    0.4671   -6.6399    1.6860 H   0  0  0  0  0  0  0  0  0  0  0  0
   -2.1121   -8.0387    2.5776 H   0  0  0  0  0  0  0  0  0  0  0  0
   -3.4456   -6.2503    2.0416 H   0  0  0  0  0  0  0  0  0  0  0  0
   -3.7966   -6.7112   -0.1314 H   0  0  0  0  0  0  0  0  0  0  0  0
   -2.5502   -5.3740   -0.3952 H   0  0  0  0  0  0  0  0  0  0  0  0
   -0.7488   -6.8153   -0.6335 H   0  0  0  0  0  0  0  0  0  0  0  0
   -0.9042   -9.9255   -1.0074 H   0  0  0  0  0  0  0  0  0  0  0  0
   -5.7964   -5.4400   -3.8838 H   0  0  0  0  0  0  0  0  0  0  0  0
   -4.9031   -5.3053   -5.4543 H   0  0  0  0  0  0  0  0  0  0  0  0
   -3.5770   -6.0597   -2.4159 H   0  0  0  0  0  0  0  0  0  0  0  0
   -5.2485   -2.6159    2.4391 H   0  0  0  0  0  0  0  0  0  0  0  0
   -4.1066   -1.5757    3.3438 H   0  0  0  0  0  0  0  0  0  0  0  0
   -5.6156   -0.3158    1.8436 H   0  0  0  0  0  0  0  0  0  0  0  0
   -3.6626    1.0460    1.6115 H   0  0  0  0  0  0  0  0  0  0  0  0
   -3.1396    0.7626   -0.9747 H   0  0  0  0  0  0  0  0  0  0  0  0
   -4.9358    0.8104   -0.4826 H   0  0  0  0  0  0  0  0  0  0  0  0
   -3.2875   -1.6862   -0.3967 H   0  0  0  0  0  0  0  0  0  0  0  0
   -6.7566   -1.1126   -4.4829 H   0  0  0  0  0  0  0  0  0  0  0  0
   -2.7494   -4.2278   -4.7446 H   0  0  0  0  0  0  0  0  0  0  0  0
   -2.7459   -2.8194   -5.9451 H   0  0  0  0  0  0  0  0  0  0  0  0
   -1.7358   -2.8094   -4.4498 H   0  0  0  0  0  0  0  0  0  0  0  0
   -2.6295   -2.4041   -2.3744 H   0  0  0  0  0  0  0  0  0  0  0  0
    1.0258    1.7923    2.4644 H   0  0  0  0  0  0  0  0  0  0  0  0
    1.4738   -0.0068    2.5481 H   0  0  0  0  0  0  0  0  0  0  0  0
    2.5222    0.0462    0.4414 H   0  0  0  0  0  0  0  0  0  0  0  0
    1.0565    2.2607   -0.3439 H   0  0  0  0  0  0  0  0  0  0  0  0
    1.9256    3.8602    1.1356 H   0  0  0  0  0  0  0  0  0  0  0  0
    3.1321    3.9895   -0.2217 H   0  0  0  0  0  0  0  0  0  0  0  0
    3.8859    3.2607    2.4080 H   0  0  0  0  0  0  0  0  0  0  0  0
    5.2180    0.8190   -0.1373 H   0  0  0  0  0  0  0  0  0  0  0  0
    9.4065    4.7853   -1.9792 H   0  0  0  0  0  0  0  0  0  0  0  0
    9.5514    3.2239   -1.0595 H   0  0  0  0  0  0  0  0  0  0  0  0
    6.6717    7.0368    1.3037 H   0  0  0  0  0  0  0  0  0  0  0  0
    0.3532    4.2362   -2.6171 H   0  0  0  0  0  0  0  0  0  0  0  0
    0.1874    3.5365   -4.2523 H   0  0  0  0  0  0  0  0  0  0  0  0
    0.1758    5.9518   -4.5150 H   0  0  0  0  0  0  0  0  0  0  0  0
    2.3751    5.8901   -2.5017 H   0  0  0  0  0  0  0  0  0  0  0  0
    3.4870    7.6740   -4.3423 H   0  0  0  0  0  0  0  0  0  0  0  0
    4.0792    6.0393   -4.0035 H   0  0  0  0  0  0  0  0  0  0  0  0
    2.2179    7.0247   -6.2385 H   0  0  0  0  0  0  0  0  0  0  0  0
    6.8214    3.0572   -9.1918 H   0  0  0  0  0  0  0  0  0  0  0  0
    7.9078    4.2415   -8.4520 H   0  0  0  0  0  0  0  0  0  0  0  0
    6.0496    3.1649   -6.1404 H   0  0  0  0  0  0  0  0  0  0  0  0
    4.1954    4.2163   -4.9539 H   0  0  0  0  0  0  0  0  0  0  0  0
    0.4737    5.8681   -0.2133 H   0  0  0  0  0  0  0  0  0  0  0  0
    1.0749    7.0963    0.9709 H   0  0  0  0  0  0  0  0  0  0  0  0
   -1.2450    7.7212    1.5197 H   0  0  0  0  0  0  0  0  0  0  0  0
   -0.2648    4.8490    1.9080 H   0  0  0  0  0  0  0  0  0  0  0  0
   -0.9193    5.8310    4.1462 H   0  0  0  0  0  0  0  0  0  0  0  0
   -2.7824    5.4735    3.3250 H   0  0  0  0  0  0  0  0  0  0  0  0
   -2.5005    4.1812    2.0692 H   0  0  0  0  0  0  0  0  0  0  0  0
   -3.2980    7.1159    1.7192 H   0  0  0  0  0  0  0  0  0  0  0  0
   -5.6226    6.1516    2.4699 H   0  0  0  0  0  0  0  0  0  0  0  0
   -2.6864    3.9430   -3.6273 H   0  0  0  0  0  0  0  0  0  0  0  0
   -3.6712    2.3926   -3.8054 H   0  0  0  0  0  0  0  0  0  0  0  0
   -2.7801    4.6724   -1.2744 H   0  0  0  0  0  0  0  0  0  0  0  0
  1  2  1  0
  1121  1  0
  2  3  1  0
  2122  1  0
  2123  1  0
  3  4  1  0
  3  5  1  0
  3124  1  0
  4  8  1  0
  5  7  1  0
  5  6  1  0
  5125  1  0
  6 17  1  0
  7  8  1  0
  7126  1  0
  7127  1  0
  8  9  1  0
  8128  1  0
  9 16  1  0
  9 10  1  0
 10 12  1  0
 10 11  2  0
 12 13  2  0
 13 15  1  0
 13 14  1  0
 14129  1  0
 14130  1  0
 15 16  2  0
 15131  1  0
 16132  1  0
 17 20  1  0
 17 19  2  0
 17 18  1  0
 20 21  1  0
 21 22  1  0
 21133  1  0
 21134  1  0
 22 24  1  0
 22 23  1  0
 22135  1  0
 23 27  1  0
 24 25  1  0
 24 26  1  0
 24136  1  0
 25 39  1  0
 26 27  1  0
 26137  1  0
 26138  1  0
 27 28  1  0
 27139  1  0
 28 38  1  0
 28 29  1  0
 29 30  2  0
 29140  1  0
 30 31  1  0
 31 32  1  0
 31 38  2  0
 32 33  2  0
 32 34  1  0
 34 35  2  0
 35 36  1  0
 35 37  1  0
 36141  1  0
 36142  1  0
 37 38  1  0
 37143  1  0
 39 41  2  0
 39 42  1  0
 39 40  1  0
 42 43  1  0
 43 44  1  0
 43144  1  0
 43145  1  0
 44 46  1  0
 44 45  1  0
 44146  1  0
 45 49  1  0
 46 48  1  0
 46 47  1  0
 46147  1  0
 47 59  1  0
 48 49  1  0
 48148  1  0
 48149  1  0
 49 50  1  0
 49150  1  0
 50 51  1  0
 50 58  1  0
 51 53  1  0
 51 52  2  0
 53 54  1  0
 53151  1  0
 54 55  2  0
 54 56  1  0
 56 57  1  0
 56 58  2  0
 57152  1  0
 57153  1  0
 57154  1  0
 58155  1  0
 59 61  2  0
 59 62  1  0
 59 60  1  0
 62 63  1  0
 63 64  1  0
 63156  1  0
 63157  1  0
 64 66  1  0
 64 65  1  0
 64158  1  0
 65 69  1  0
 66 68  1  0
 66 67  1  0
 66159  1  0
 67 80  1  0
 68 69  1  0
 68160  1  0
 68161  1  0
 69 70  1  0
 69162  1  0
 70 79  1  0
 70 71  1  0
 71 72  2  0
 71163  1  0
 72 73  1  0
 73 79  2  0
 73 74  1  0
 74 76  2  0
 74 75  1  0
 75164  1  0
 75165  1  0
 76 77  1  0
 77 78  2  0
 77166  1  0
 78 79  1  0
 80 83  1  0
 80 82  2  0
 80 81  1  0
 83 84  1  0
 84 85  1  0
 84167  1  0
 84168  1  0
 85 87  1  0
 85 86  1  0
 85169  1  0
 86 90  1  0
 87 88  1  0
 87 89  1  0
 87170  1  0
 88 99  1  0
 89 90  1  0
 89171  1  0
 89172  1  0
 90 91  1  0
 90173  1  0
 91 98  1  0
 91 92  1  0
 92 93  2  0
 92 94  1  0
 94 95  2  0
 95 97  1  0
 95 96  1  0
 96174  1  0
 96175  1  0
 97 98  2  0
 97176  1  0
 98177  1  0
 99100  2  0
 99101  1  0
 99102  1  0
102103  1  0
103104  1  0
103178  1  0
103179  1  0
104105  1  0
104106  1  0
104180  1  0
105109  1  0
106108  1  0
106107  1  0
106181  1  0
107182  1  0
108109  1  0
108183  1  0
108184  1  0
109110  1  0
109185  1  0
110111  1  0
110120  1  0
111112  2  0
111186  1  0
112113  1  0
113114  1  0
113120  2  0
114115  2  0
114116  1  0
116117  2  0
117118  1  0
117119  1  0
118187  1  0
118188  1  0
119120  1  0
119189  1  0
M  CHG  5  18  -1  40  -1  60  -1  81  -1 101  -1
M  END
$$$$
DNA (5'-D(*CP*GP*TP*AP*CP*G)-3')
     RDKit          3D

189203  0  0  0  0  0  0  0  0999 V2000
   -6.4250   -1.5097    2.6004 O   0  0  0  0  0  0  0  0  0  0  0  0
   -5.1603   -1.9186    2.1543 C   0  0  0  0  0  0  0  0  0  0  0  0
   -5.0296   -3.3709    2.4596 C   0  0  0  0  0  0  0  0  0  0  0  0
   -6.0298   -4.0682    1.7992 O   0  0  0  0  0  0  0  0  0  0  0  0
   -3.7700   -3.9934    1.9015 C   0  0  0  0  0  0  0  0  0  0  0  0
   -2.6803   -3.1622    2.0003 O   0  0  0  0  0  0  0  0  0  0  0  0
   -4.1799   -4.3482    0.5093 C   0  0  0  0  0  0  0  0  0  0  0  0
   -5.6420   -4.0496    0.4844 C   0  0  0  0  0  0  0  0  0  0  0  0
   -6.4056   -5.0895   -0.2238 N   0  0  0  0  0  0  0  0  0  0  0  0
   -7.6641   -5.3495    0.2352 C   0  0  0  0  0  0  0  0  0  0  0  0
   -8.1327   -4.7187    1.2182 O   0  0  0  0  0  0  0  0  0  0  0  0
   -8.4413   -6.2968   -0.3605 N   0  0  0  0  0  0  0  0  0  0  0  0
   -7.9582   -6.9903   -1.4231 C   0  0  0  0  0  0  0  0  0  0  0  0
   -8.7795   -7.9864   -2.0510 N   0  0  0  0  0  0  0  0  0  0  0  0
   -6.6794   -6.7251   -1.8880 C   0  0  0  0  0  0  0  0  0  0  0  0
   -5.8866   -5.7539   -1.2749 C   0  0  0  0  0  0  0  0  0  0  0  0
   -1.4815   -3.7433    3.0380 P   0  0  0  0  0  0  0  0  0  0  0  0
   -2.1854   -4.8302    4.1255 O   0  0  0  0  0  0  0  0  0  0  0  0
   -0.4110   -4.4883    2.2769 O   0  0  0  0  0  0  0  0  0  0  0  0
   -0.7821   -2.4827    3.9276 O   0  0  0  0  0  0  0  0  0  0  0  0
    0.1613   -1.7948    3.1153 C   0  0  0  0  0  0  0  0  0  0  0  0
    0.6697   -0.6181    3.9071 C   0  0  0  0  0  0  0  0  0  0  0  0
    1.2312   -1.1574    5.0728 O   0  0  0  0  0  0  0  0  0  0  0  0
    1.6654    0.2418    3.2476 C   0  0  0  0  0  0  0  0  0  0  0  0
    1.1445    1.5014    2.9545 O   0  0  0  0  0  0  0  0  0  0  0  0
    2.6665    0.4302    4.4514 C   0  0  0  0  0  0  0  0  0  0  0  0
    2.5977   -1.0070    4.9563 C   0  0  0  0  0  0  0  0  0  0  0  0
    3.2960   -1.2164    6.1843 N   0  0  0  0  0  0  0  0  0  0  0  0
    2.8465   -1.2322    7.4561 C   0  0  0  0  0  0  0  0  0  0  0  0
    3.8970   -1.4696    8.2612 N   0  0  0  0  0  0  0  0  0  0  0  0
    5.0233   -1.6095    7.5449 C   0  0  0  0  0  0  0  0  0  0  0  0
    6.3575   -1.8561    7.8252 C   0  0  0  0  0  0  0  0  0  0  0  0
    6.7005   -2.0011    9.0204 O   0  0  0  0  0  0  0  0  0  0  0  0
    7.2827   -1.9404    6.8350 N   0  0  0  0  0  0  0  0  0  0  0  0
    6.8718   -1.7780    5.5593 C   0  0  0  0  0  0  0  0  0  0  0  0
    7.8371   -1.8624    4.4985 N   0  0  0  0  0  0  0  0  0  0  0  0
    5.5784   -1.5356    5.2378 N   0  0  0  0  0  0  0  0  0  0  0  0
    4.6413   -1.4487    6.2312 C   0  0  0  0  0  0  0  0  0  0  0  0
    2.0789    2.4455    1.9702 P   0  0  0  0  0  0  0  0  0  0  0  0
    3.6665    1.8447    1.7972 O   0  0  0  0  0  0  0  0  0  0  0  0
    2.2726    3.7851    2.7126 O   0  0  0  0  0  0  0  0  0  0  0  0
    1.4052    2.8669    0.4734 O   0  0  0  0  0  0  0  0  0  0  0  0
    1.6011    4.2163    0.2184 C   0  0  0  0  0  0  0  0  0  0  0  0
    1.8342    4.6389   -1.1673 C   0  0  0  0  0  0  0  0  0  0  0  0
    2.0874    6.0305   -1.2455 O   0  0  0  0  0  0  0  0  0  0  0  0
    0.8556    4.3220   -2.2250 C   0  0  0  0  0  0  0  0  0  0  0  0
    1.0158    3.1220   -2.9188 O   0  0  0  0  0  0  0  0  0  0  0  0
    1.3294    5.4284   -3.2309 C   0  0  0  0  0  0  0  0  0  0  0  0
    1.3347    6.5480   -2.2939 C   0  0  0  0  0  0  0  0  0  0  0  0
    0.1020    6.9896   -1.7248 N   0  0  0  0  0  0  0  0  0  0  0  0
   -1.0795    7.0317   -2.3751 C   0  0  0  0  0  0  0  0  0  0  0  0
   -1.1238    6.6591   -3.5721 O   0  0  0  0  0  0  0  0  0  0  0  0
   -2.2211    7.4556   -1.8023 N   0  0  0  0  0  0  0  0  0  0  0  0
   -2.2752    7.8785   -0.5134 C   0  0  0  0  0  0  0  0  0  0  0  0
   -3.3500    8.2738    0.0128 O   0  0  0  0  0  0  0  0  0  0  0  0
   -1.0829    7.8478    0.1794 C   0  0  0  0  0  0  0  0  0  0  0  0
   -1.0705    8.3022    1.6046 C   0  0  0  0  0  0  0  0  0  0  0  0
    0.0572    7.4137   -0.4252 C   0  0  0  0  0  0  0  0  0  0  0  0
   -0.3316    2.7927   -3.8748 P   0  0  0  0  0  0  0  0  0  0  0  0
   -1.7688    3.4010   -3.2257 O   0  0  0  0  0  0  0  0  0  0  0  0
   -0.0427    3.4938   -5.2222 O   0  0  0  0  0  0  0  0  0  0  0  0
   -0.5065    1.1518   -4.1293 O   0  0  0  0  0  0  0  0  0  0  0  0
    0.2609    0.6955   -5.2012 C   0  0  0  0  0  0  0  0  0  0  0  0
   -0.5571   -0.1585   -6.0840 C   0  0  0  0  0  0  0  0  0  0  0  0
    0.1679   -0.6184   -7.1938 O   0  0  0  0  0  0  0  0  0  0  0  0
   -1.0871   -1.4389   -5.5497 C   0  0  0  0  0  0  0  0  0  0  0  0
   -0.1123   -2.4288   -5.3310 O   0  0  0  0  0  0  0  0  0  0  0  0
   -1.7441   -1.9507   -6.8860 C   0  0  0  0  0  0  0  0  0  0  0  0
   -0.6009   -1.6001   -7.8144 C   0  0  0  0  0  0  0  0  0  0  0  0
    0.2654   -2.7426   -8.0615 N   0  0  0  0  0  0  0  0  0  0  0  0
   -0.0146   -4.0569   -7.9863 C   0  0  0  0  0  0  0  0  0  0  0  0
    1.0722   -4.7896   -8.2912 N   0  0  0  0  0  0  0  0  0  0  0  0
    2.0784   -3.9610   -8.5700 C   0  0  0  0  0  0  0  0  0  0  0  0
    3.3850   -4.2271   -8.9345 C   0  0  0  0  0  0  0  0  0  0  0  0
    3.8951   -5.5494   -9.0771 N   0  0  0  0  0  0  0  0  0  0  0  0
    4.1647   -3.1301   -9.1492 N   0  0  0  0  0  0  0  0  0  0  0  0
    3.6797   -1.8813   -9.0115 C   0  0  0  0  0  0  0  0  0  0  0  0
    2.3969   -1.6438   -8.6536 N   0  0  0  0  0  0  0  0  0  0  0  0
    1.5779   -2.6847   -8.4277 C   0  0  0  0  0  0  0  0  0  0  0  0
   -0.6821   -3.4825   -4.1423 P   0  0  0  0  0  0  0  0  0  0  0  0
   -2.1206   -2.8595   -3.4545 O   0  0  0  0  0  0  0  0  0  0  0  0
   -0.9230   -4.8706   -4.6202 O   0  0  0  0  0  0  0  0  0  0  0  0
    0.4319   -3.5164   -2.8343 O   0  0  0  0  0  0  0  0  0  0  0  0
    0.2899   -2.2547   -2.2588 C   0  0  0  0  0  0  0  0  0  0  0  0
    1.1141   -2.0090   -1.0475 C   0  0  0  0  0  0  0  0  0  0  0  0
    2.4777   -2.1238   -1.2688 O   0  0  0  0  0  0  0  0  0  0  0  0
    0.8883   -0.5529   -0.6327 C   0  0  0  0  0  0  0  0  0  0  0  0
   -0.2092   -0.0412   -1.2824 O   0  0  0  0  0  0  0  0  0  0  0  0
    2.1939    0.0916   -1.0238 C   0  0  0  0  0  0  0  0  0  0  0  0
    2.8396   -0.9172   -1.9144 C   0  0  0  0  0  0  0  0  0  0  0  0
    4.2888   -0.8599   -1.8843 N   0  0  0  0  0  0  0  0  0  0  0  0
    4.9839    0.2593   -1.6411 C   0  0  0  0  0  0  0  0  0  0  0  0
    4.3752    1.3306   -1.4243 O   0  0  0  0  0  0  0  0  0  0  0  0
    6.3311    0.3094   -1.6137 N   0  0  0  0  0  0  0  0  0  0  0  0
    7.0785   -0.8034   -1.8378 C   0  0  0  0  0  0  0  0  0  0  0  0
    8.4971   -0.7400   -1.8069 N   0  0  0  0  0  0  0  0  0  0  0  0
    6.3944   -1.9786   -2.0929 C   0  0  0  0  0  0  0  0  0  0  0  0
    5.0067   -1.9930   -2.1131 C   0  0  0  0  0  0  0  0  0  0  0  0
   -1.5666    0.2397   -0.3853 P   0  0  0  0  0  0  0  0  0  0  0  0
   -2.4010    1.2876   -1.1357 O   0  0  0  0  0  0  0  0  0  0  0  0
   -2.6093   -1.1252   -0.3129 O   0  0  0  0  0  0  0  0  0  0  0  0
   -1.2938    0.8191    1.1870 O   0  0  0  0  0  0  0  0  0  0  0  0
   -2.2678    1.7489    1.4740 C   0  0  0  0  0  0  0  0  0  0  0  0
   -2.6817    1.8801    2.8849 C   0  0  0  0  0  0  0  0  0  0  0  0
   -1.7191    2.2326    3.8013 O   0  0  0  0  0  0  0  0  0  0  0  0
   -3.6641    3.0302    3.0282 C   0  0  0  0  0  0  0  0  0  0  0  0
   -3.2481    4.0059    2.1269 O   0  0  0  0  0  0  0  0  0  0  0  0
   -3.4469    3.4720    4.4836 C   0  0  0  0  0  0  0  0  0  0  0  0
   -2.5390    2.3517    4.9525 C   0  0  0  0  0  0  0  0  0  0  0  0
   -1.8249    2.6257    6.1474 N   0  0  0  0  0  0  0  0  0  0  0  0
   -1.3528    3.7828    6.6415 C   0  0  0  0  0  0  0  0  0  0  0  0
   -0.7397    3.5474    7.8223 N   0  0  0  0  0  0  0  0  0  0  0  0
   -0.8098    2.2253    8.1075 C   0  0  0  0  0  0  0  0  0  0  0  0
   -0.3892    1.4103    9.1224 C   0  0  0  0  0  0  0  0  0  0  0  0
    0.2355    1.9065   10.1012 O   0  0  0  0  0  0  0  0  0  0  0  0
   -0.6185    0.0629    9.1269 N   0  0  0  0  0  0  0  0  0  0  0  0
   -1.2955   -0.4727    8.0679 C   0  0  0  0  0  0  0  0  0  0  0  0
   -1.5731   -1.8694    7.9970 N   0  0  0  0  0  0  0  0  0  0  0  0
   -1.7188    0.3200    7.0552 N   0  0  0  0  0  0  0  0  0  0  0  0
   -1.4880    1.6615    7.0557 C   0  0  0  0  0  0  0  0  0  0  0  0
   -6.7453   -0.6889    2.1688 H   0  0  0  0  0  0  0  0  0  0  0  0
   -4.9474   -1.6457    1.1207 H   0  0  0  0  0  0  0  0  0  0  0  0
   -4.4489   -1.2918    2.7710 H   0  0  0  0  0  0  0  0  0  0  0  0
   -5.1224   -3.5270    3.5532 H   0  0  0  0  0  0  0  0  0  0  0  0
   -3.5678   -4.8913    2.5030 H   0  0  0  0  0  0  0  0  0  0  0  0
   -3.9715   -5.4089    0.2272 H   0  0  0  0  0  0  0  0  0  0  0  0
   -3.6004   -3.7439   -0.2266 H   0  0  0  0  0  0  0  0  0  0  0  0
   -5.7966   -3.0820   -0.0318 H   0  0  0  0  0  0  0  0  0  0  0  0
   -9.7054   -8.2054   -1.6583 H   0  0  0  0  0  0  0  0  0  0  0  0
   -8.4062   -8.4661   -2.8981 H   0  0  0  0  0  0  0  0  0  0  0  0
   -6.2760   -7.2708   -2.7359 H   0  0  0  0  0  0  0  0  0  0  0  0
   -4.8790   -5.5327   -1.6271 H   0  0  0  0  0  0  0  0  0  0  0  0
   -0.3602   -1.5496    2.1909 H   0  0  0  0  0  0  0  0  0  0  0  0
    0.9585   -2.5302    2.8951 H   0  0  0  0  0  0  0  0  0  0  0  0
   -0.2167   -0.0215    4.2495 H   0  0  0  0  0  0  0  0  0  0  0  0
    2.3236   -0.1779    2.4931 H   0  0  0  0  0  0  0  0  0  0  0  0
    3.6483    0.7220    4.0884 H   0  0  0  0  0  0  0  0  0  0  0  0
    2.1820    1.1173    5.1597 H   0  0  0  0  0  0  0  0  0  0  0  0
    2.9769   -1.6510    4.1242 H   0  0  0  0  0  0  0  0  0  0  0  0
    1.8140   -1.0756    7.7263 H   0  0  0  0  0  0  0  0  0  0  0  0
    7.7529   -2.6127    3.7483 H   0  0  0  0  0  0  0  0  0  0  0  0
    8.6364   -1.1829    4.4516 H   0  0  0  0  0  0  0  0  0  0  0  0
    5.3329   -1.4208    4.2318 H   0  0  0  0  0  0  0  0  0  0  0  0
    2.5227    4.4940    0.8119 H   0  0  0  0  0  0  0  0  0  0  0  0
    0.7890    4.8369    0.6707 H   0  0  0  0  0  0  0  0  0  0  0  0
    2.8219    4.1882   -1.4952 H   0  0  0  0  0  0  0  0  0  0  0  0
   -0.1977    4.5583   -1.9931 H   0  0  0  0  0  0  0  0  0  0  0  0
    0.7748    5.4379   -4.1379 H   0  0  0  0  0  0  0  0  0  0  0  0
    2.3821    5.1500   -3.4368 H   0  0  0  0  0  0  0  0  0  0  0  0
    1.8253    7.4293   -2.7528 H   0  0  0  0  0  0  0  0  0  0  0  0
   -3.1352    7.4848   -2.3148 H   0  0  0  0  0  0  0  0  0  0  0  0
   -1.1418    9.4123    1.5804 H   0  0  0  0  0  0  0  0  0  0  0  0
   -1.9670    7.9388    2.1420 H   0  0  0  0  0  0  0  0  0  0  0  0
   -0.1257    8.0615    2.1043 H   0  0  0  0  0  0  0  0  0  0  0  0
    0.9662    7.4078    0.1605 H   0  0  0  0  0  0  0  0  0  0  0  0
    0.6847    1.5208   -5.7895 H   0  0  0  0  0  0  0  0  0  0  0  0
    1.1087    0.1301   -4.7242 H   0  0  0  0  0  0  0  0  0  0  0  0
   -1.4384    0.4345   -6.4284 H   0  0  0  0  0  0  0  0  0  0  0  0
   -1.8620   -1.3840   -4.7987 H   0  0  0  0  0  0  0  0  0  0  0  0
   -2.6123   -1.3153   -7.0331 H   0  0  0  0  0  0  0  0  0  0  0  0
   -1.9689   -3.0107   -6.8057 H   0  0  0  0  0  0  0  0  0  0  0  0
   -1.0376   -1.1866   -8.7450 H   0  0  0  0  0  0  0  0  0  0  0  0
   -0.9567   -4.5052   -7.7259 H   0  0  0  0  0  0  0  0  0  0  0  0
    3.4196   -6.3046   -9.6014 H   0  0  0  0  0  0  0  0  0  0  0  0
    4.8057   -5.7691   -8.6232 H   0  0  0  0  0  0  0  0  0  0  0  0
    4.3838   -1.0588   -9.2090 H   0  0  0  0  0  0  0  0  0  0  0  0
   -0.7774   -2.1358   -2.0245 H   0  0  0  0  0  0  0  0  0  0  0  0
    0.6067   -1.5451   -3.0827 H   0  0  0  0  0  0  0  0  0  0  0  0
    0.8338   -2.6712   -0.2119 H   0  0  0  0  0  0  0  0  0  0  0  0
    0.6903   -0.4768    0.4404 H   0  0  0  0  0  0  0  0  0  0  0  0
    2.0536    1.0726   -1.4827 H   0  0  0  0  0  0  0  0  0  0  0  0
    2.7977    0.1295   -0.0905 H   0  0  0  0  0  0  0  0  0  0  0  0
    2.5298   -0.9082   -2.9617 H   0  0  0  0  0  0  0  0  0  0  0  0
    9.0224   -0.4567   -2.6609 H   0  0  0  0  0  0  0  0  0  0  0  0
    8.9723   -0.9897   -0.8974 H   0  0  0  0  0  0  0  0  0  0  0  0
    6.9869   -2.8751   -2.2752 H   0  0  0  0  0  0  0  0  0  0  0  0
    4.5223   -2.9485   -2.3184 H   0  0  0  0  0  0  0  0  0  0  0  0
   -2.0303    2.7644    1.0921 H   0  0  0  0  0  0  0  0  0  0  0  0
   -3.1865    1.4409    0.8913 H   0  0  0  0  0  0  0  0  0  0  0  0
   -3.2066    0.9952    3.2982 H   0  0  0  0  0  0  0  0  0  0  0  0
   -4.7031    2.7110    2.8680 H   0  0  0  0  0  0  0  0  0  0  0  0
   -2.5341    4.5650    2.5291 H   0  0  0  0  0  0  0  0  0  0  0  0
   -2.8336    4.3959    4.4609 H   0  0  0  0  0  0  0  0  0  0  0  0
   -4.3762    3.5379    5.0524 H   0  0  0  0  0  0  0  0  0  0  0  0
   -3.1133    1.3878    5.0410 H   0  0  0  0  0  0  0  0  0  0  0  0
   -1.4460    4.7497    6.1744 H   0  0  0  0  0  0  0  0  0  0  0  0
   -2.2552   -2.3340    8.6238 H   0  0  0  0  0  0  0  0  0  0  0  0
   -1.0807   -2.4659    7.2925 H   0  0  0  0  0  0  0  0  0  0  0  0
   -2.2252   -0.1210    6.2736 H   0  0  0  0  0  0  0  0  0  0  0  0
  1  2  1  0
  1121  1  0
  2  3  1  0
  2122  1  0
  2123  1  0
  3  4  1  0
  3  5  1  0
  3124  1  0
  4  8  1  0
  5  7  1  0
  5  6  1  0
  5125  1  0
  6 17  1  0
  7  8  1  0
  7126  1  0
  7127  1  0
  8  9  1  0
  8128  1  0
  9 16  1  0
  9 10  1  0
 10 12  1  0
 10 11  2  0
 12 13  2  0
 13 15  1  0
 13 14  1  0
 14129  1  0
 14130  1  0
 15 16  2  0
 15131  1  0
 16132  1  0
 17 20  1  0
 17 19  2  0
 17 18  1  0
 20 21  1  0
 21 22  1  0
 21133  1  0
 21134  1  0
 22 24  1  0
 22 23  1  0
 22135  1  0
 23 27  1  0
 24 25  1  0
 24 26  1  0
 24136  1  0
 25 39  1  0
 26 27  1  0
 26137  1  0
 26138  1  0
 27 28  1  0
 27139  1  0
 28 38  1  0
 28 29  1  0
 29 30  2  0
 29140  1  0
 30 31  1  0
 31 32  1  0
 31 38  2  0
 32 33  2  0
 32 34  1  0
 34 35  2  0
 35 36  1  0
 35 37  1  0
 36141  1  0
 36142  1  0
 37 38  1  0
 37143  1  0
 39 41  2  0
 39 42  1  0
 39 40  1  0
 42 43  1  0
 43 44  1  0
 43144  1  0
 43145  1  0
 44 46  1  0
 44 45  1  0
 44146  1  0
 45 49  1  0
 46 48  1  0
 46 47  1  0
 46147  1  0
 47 59  1  0
 48 49  1  0
 48148  1  0
 48149  1  0
 49 50  1  0
 49150  1  0
 50 51  1  0
 50 58  1  0
 51 53  1  0
 51 52  2  0
 53 54  1  0
 53151  1  0
 54 55  2  0
 54 56  1  0
 56 57  1  0
 56 58  2  0
 57152  1  0
 57153  1  0
 57154  1  0
 58155  1  0
 59 61  2  0
 59 62  1  0
 59 60  1  0
 62 63  1  0
 63 64  1  0
 63156  1  0
 63157  1  0
 64 66  1  0
 64 65  1  0
 64158  1  0
 65 69  1  0
 66 68  1  0
 66 67  1  0
 66159  1  0
 67 80  1  0
 68 69  1  0
 68160  1  0
 68161  1  0
 69 70  1  0
 69162  1  0
 70 79  1  0
 70 71  1  0
 71 72  2  0
 71163  1  0
 72 73  1  0
 73 79  2  0
 73 74  1  0
 74 76  2  0
 74 75  1  0
 75164  1  0
 75165  1  0
 76 77  1  0
 77 78  2  0
 77166  1  0
 78 79  1  0
 80 83  1  0
 80 82  2  0
 80 81  1  0
 83 84  1  0
 84 85  1  0
 84167  1  0
 84168  1  0
 85 87  1  0
 85 86  1  0
 85169  1  0
 86 90  1  0
 87 88  1  0
 87 89  1  0
 87170  1  0
 88 99  1  0
 89 90  1  0
 89171  1  0
 89172  1  0
 90 91  1  0
 90173  1  0
 91 98  1  0
 91 92  1  0
 92 93  2  0
 92 94  1  0
 94 95  2  0
 95 97  1  0
 95 96  1  0
 96174  1  0
 96175  1  0
 97 98  2  0
 97176  1  0
 98177  1  0
 99100  2  0
 99101  1  0
 99102  1  0
102103  1  0
103104  1  0
103178  1  0
103179  1  0
104105  1  0
104106  1  0
104180  1  0
105109  1  0
106108  1  0
106107  1  0
106181  1  0
107182  1  0
108109  1  0
108183  1  0
108184  1  0
109110  1  0
109185  1  0
110111  1  0
110120  1  0
111112  2  0
111186  1  0
112113  1  0
113114  1  0
113120  2  0
114115  2  0
114116  1  0
116117  2  0
117118  1  0
117119  1  0
118187  1  0
118188  1  0
119120  1  0
119189  1  0
M  CHG  5  18  -1  40  -1  60  -1  81  -1 101  -1
M  END
$$$$
DNA (5'-D(*CP*GP*TP*AP*CP*G)-3')
     RDKit          3D

189203  0  0  0  0  0  0  0  0999 V2000
    1.0926    0.1997   -7.8259 O   0  0  0  0  0  0  0  0  0  0  0  0
    0.1161    1.1788   -7.6809 C   0  0  0  0  0  0  0  0  0  0  0  0
   -1.2521    0.5488   -7.8458 C   0  0  0  0  0  0  0  0  0  0  0  0
   -2.2374    1.5226   -7.7014 O   0  0  0  0  0  0  0  0  0  0  0  0
   -1.4794   -0.3247   -6.6303 C   0  0  0  0  0  0  0  0  0  0  0  0
   -2.5332   -1.2247   -6.8098 O   0  0  0  0  0  0  0  0  0  0  0  0
   -1.8632    0.6806   -5.5757 C   0  0  0  0  0  0  0  0  0  0  0  0
   -2.1913    1.9079   -6.3624 C   0  0  0  0  0  0  0  0  0  0  0  0
   -3.4673    2.5082   -6.0368 N   0  0  0  0  0  0  0  0  0  0  0  0
   -4.1232    3.1684   -7.0358 C   0  0  0  0  0  0  0  0  0  0  0  0
   -3.6326    3.2464   -8.1926 O   0  0  0  0  0  0  0  0  0  0  0  0
   -5.3245    3.7568   -6.7981 N   0  0  0  0  0  0  0  0  0  0  0  0
   -5.8672    3.6799   -5.5486 C   0  0  0  0  0  0  0  0  0  0  0  0
   -7.1414    4.3097   -5.3210 N   0  0  0  0  0  0  0  0  0  0  0  0
   -5.2324    3.0210   -4.5155 C   0  0  0  0  0  0  0  0  0  0  0  0
   -4.0074    2.4358   -4.8071 C   0  0  0  0  0  0  0  0  0  0  0  0
   -1.9959   -2.8035   -6.6800 P   0  0  0  0  0  0  0  0  0  0  0  0
   -0.3182   -2.8168   -6.4005 O   0  0  0  0  0  0  0  0  0  0  0  0
   -2.1778   -3.4634   -8.0513 O   0  0  0  0  0  0  0  0  0  0  0  0
   -2.8096   -3.7377   -5.5666 O   0  0  0  0  0  0  0  0  0  0  0  0
   -2.5487   -3.4101   -4.2435 C   0  0  0  0  0  0  0  0  0  0  0  0
   -3.0466   -4.4914   -3.2964 C   0  0  0  0  0  0  0  0  0  0  0  0
   -2.4507   -5.6986   -3.5404 O   0  0  0  0  0  0  0  0  0  0  0  0
   -2.5962   -4.1037   -1.9187 C   0  0  0  0  0  0  0  0  0  0  0  0
   -1.3864   -3.4124   -2.0197 O   0  0  0  0  0  0  0  0  0  0  0  0
   -2.3627   -5.4263   -1.2397 C   0  0  0  0  0  0  0  0  0  0  0  0
   -2.1813   -6.3646   -2.3819 C   0  0  0  0  0  0  0  0  0  0  0  0
   -0.8047   -6.8663   -2.3537 N   0  0  0  0  0  0  0  0  0  0  0  0
    0.1449   -6.3828   -3.1773 C   0  0  0  0  0  0  0  0  0  0  0  0
    1.3095   -7.0462   -2.9156 N   0  0  0  0  0  0  0  0  0  0  0  0
    1.0715   -7.9350   -1.9318 C   0  0  0  0  0  0  0  0  0  0  0  0
    1.8926   -8.8519   -1.2911 C   0  0  0  0  0  0  0  0  0  0  0  0
    3.1189   -8.9772   -1.5958 O   0  0  0  0  0  0  0  0  0  0  0  0
    1.3099   -9.5998   -0.3278 N   0  0  0  0  0  0  0  0  0  0  0  0
    0.0098   -9.4813    0.0094 C   0  0  0  0  0  0  0  0  0  0  0  0
   -0.4810  -10.3296    1.0405 N   0  0  0  0  0  0  0  0  0  0  0  0
   -0.8136   -8.5861   -0.6086 N   0  0  0  0  0  0  0  0  0  0  0  0
   -0.2752   -7.8227   -1.5717 C   0  0  0  0  0  0  0  0  0  0  0  0
   -1.4909   -1.8679   -1.3910 P   0  0  0  0  0  0  0  0  0  0  0  0
   -1.4188   -0.7871   -2.7156 O   0  0  0  0  0  0  0  0  0  0  0  0
   -2.8357   -1.6446   -0.7255 O   0  0  0  0  0  0  0  0  0  0  0  0
   -0.2955   -1.4808   -0.2950 O   0  0  0  0  0  0  0  0  0  0  0  0
    0.9804   -1.5003   -0.8073 C   0  0  0  0  0  0  0  0  0  0  0  0
    1.9674   -0.7720    0.0849 C   0  0  0  0  0  0  0  0  0  0  0  0
    3.2154   -0.8493   -0.5126 O   0  0  0  0  0  0  0  0  0  0  0  0
    2.1884   -1.4566    1.4094 C   0  0  0  0  0  0  0  0  0  0  0  0
    2.9144   -0.5761    2.2107 O   0  0  0  0  0  0  0  0  0  0  0  0
    3.1182   -2.5847    1.0368 C   0  0  0  0  0  0  0  0  0  0  0  0
    3.8232   -2.0237   -0.1572 C   0  0  0  0  0  0  0  0  0  0  0  0
    5.2193   -1.7758    0.2342 N   0  0  0  0  0  0  0  0  0  0  0  0
    6.0543   -2.7617    0.5597 C   0  0  0  0  0  0  0  0  0  0  0  0
    5.6610   -3.9560    0.5416 O   0  0  0  0  0  0  0  0  0  0  0  0
    7.3438   -2.5178    0.9183 N   0  0  0  0  0  0  0  0  0  0  0  0
    7.8316   -1.2551    0.9587 C   0  0  0  0  0  0  0  0  0  0  0  0
    9.0157   -1.0046    1.2859 O   0  0  0  0  0  0  0  0  0  0  0  0
    6.9529   -0.2514    0.6187 C   0  0  0  0  0  0  0  0  0  0  0  0
    7.4556    1.1569    0.6510 C   0  0  0  0  0  0  0  0  0  0  0  0
    5.6669   -0.5149    0.2626 C   0  0  0  0  0  0  0  0  0  0  0  0
    2.1893   -0.2191    3.6704 P   0  0  0  0  0  0  0  0  0  0  0  0
    3.1670   -0.6773    4.9892 O   0  0  0  0  0  0  0  0  0  0  0  0
    0.8235   -0.8388    3.8293 O   0  0  0  0  0  0  0  0  0  0  0  0
    2.0265    1.4800    3.7861 O   0  0  0  0  0  0  0  0  0  0  0  0
    1.8517    1.7918    5.1286 C   0  0  0  0  0  0  0  0  0  0  0  0
    1.6492    3.2797    5.3423 C   0  0  0  0  0  0  0  0  0  0  0  0
    2.7228    4.0224    4.8975 O   0  0  0  0  0  0  0  0  0  0  0  0
    0.4096    3.7830    4.6824 C   0  0  0  0  0  0  0  0  0  0  0  0
   -0.4788    2.8580    4.2512 O   0  0  0  0  0  0  0  0  0  0  0  0
    1.0272    4.6526    3.5750 C   0  0  0  0  0  0  0  0  0  0  0  0
    2.1626    5.2040    4.4533 C   0  0  0  0  0  0  0  0  0  0  0  0
    3.0325    6.0893    3.7646 N   0  0  0  0  0  0  0  0  0  0  0  0
    2.8511    7.4434    3.7201 C   0  0  0  0  0  0  0  0  0  0  0  0
    3.8172    7.9993    3.0062 N   0  0  0  0  0  0  0  0  0  0  0  0
    4.6204    7.0267    2.5880 C   0  0  0  0  0  0  0  0  0  0  0  0
    5.7709    7.0771    1.8122 C   0  0  0  0  0  0  0  0  0  0  0  0
    6.2406    8.3396    1.3403 N   0  0  0  0  0  0  0  0  0  0  0  0
    6.4067    5.9158    1.5291 N   0  0  0  0  0  0  0  0  0  0  0  0
    5.9144    4.7522    2.0009 C   0  0  0  0  0  0  0  0  0  0  0  0
    4.7896    4.7077    2.7585 N   0  0  0  0  0  0  0  0  0  0  0  0
    4.1383    5.8430    3.0551 C   0  0  0  0  0  0  0  0  0  0  0  0
   -2.0566    3.0921    4.7810 P   0  0  0  0  0  0  0  0  0  0  0  0
   -2.1384    3.9127    6.2325 O   0  0  0  0  0  0  0  0  0  0  0  0
   -2.6825    1.7288    4.9641 O   0  0  0  0  0  0  0  0  0  0  0  0
   -2.8929    3.8724    3.5410 O   0  0  0  0  0  0  0  0  0  0  0  0
   -3.4134    2.8925    2.6963 C   0  0  0  0  0  0  0  0  0  0  0  0
   -3.9125    3.6284    1.4701 C   0  0  0  0  0  0  0  0  0  0  0  0
   -2.8482    4.3052    0.8663 O   0  0  0  0  0  0  0  0  0  0  0  0
   -4.5223    2.7120    0.4606 C   0  0  0  0  0  0  0  0  0  0  0  0
   -4.1395    1.4126    0.7721 O   0  0  0  0  0  0  0  0  0  0  0  0
   -3.7738    3.0989   -0.7943 C   0  0  0  0  0  0  0  0  0  0  0  0
   -2.4440    3.4724   -0.1807 C   0  0  0  0  0  0  0  0  0  0  0  0
   -1.4923    4.0325   -1.0653 N   0  0  0  0  0  0  0  0  0  0  0  0
   -0.4989    3.2232   -1.5283 C   0  0  0  0  0  0  0  0  0  0  0  0
   -0.4491    2.0046   -1.1642 O   0  0  0  0  0  0  0  0  0  0  0  0
    0.4524    3.6463   -2.3661 N   0  0  0  0  0  0  0  0  0  0  0  0
    0.4815    4.9048   -2.8015 C   0  0  0  0  0  0  0  0  0  0  0  0
    1.5190    5.2854   -3.6868 N   0  0  0  0  0  0  0  0  0  0  0  0
   -0.5050    5.7592   -2.3582 C   0  0  0  0  0  0  0  0  0  0  0  0
   -1.4949    5.3016   -1.4809 C   0  0  0  0  0  0  0  0  0  0  0  0
   -5.4390    0.3437    0.9065 P   0  0  0  0  0  0  0  0  0  0  0  0
   -6.5630    0.9121    1.7055 O   0  0  0  0  0  0  0  0  0  0  0  0
   -6.0171   -0.0724   -0.6455 O   0  0  0  0  0  0  0  0  0  0  0  0
   -4.8166   -1.0779    1.5949 O   0  0  0  0  0  0  0  0  0  0  0  0
   -5.2881   -1.1780    2.8811 C   0  0  0  0  0  0  0  0  0  0  0  0
   -4.7639   -2.4029    3.6015 C   0  0  0  0  0  0  0  0  0  0  0  0
   -3.3874   -2.4077    3.6955 O   0  0  0  0  0  0  0  0  0  0  0  0
   -5.1925   -3.6857    2.9531 C   0  0  0  0  0  0  0  0  0  0  0  0
   -5.1629   -3.6051    1.5589 O   0  0  0  0  0  0  0  0  0  0  0  0
   -4.0819   -4.6246    3.3738 C   0  0  0  0  0  0  0  0  0  0  0  0
   -2.9391   -3.6920    3.6058 C   0  0  0  0  0  0  0  0  0  0  0  0
   -2.1633   -4.1017    4.7643 N   0  0  0  0  0  0  0  0  0  0  0  0
   -2.4939   -3.9370    6.0480 C   0  0  0  0  0  0  0  0  0  0  0  0
   -1.5009   -4.4558    6.8267 N   0  0  0  0  0  0  0  0  0  0  0  0
   -0.5398   -4.9500    6.0280 C   0  0  0  0  0  0  0  0  0  0  0  0
    0.6561   -5.5704    6.2720 C   0  0  0  0  0  0  0  0  0  0  0  0
    1.0695   -5.7907    7.4504 O   0  0  0  0  0  0  0  0  0  0  0  0
    1.3954   -5.9476    5.2128 N   0  0  0  0  0  0  0  0  0  0  0  0
    0.9832   -5.7273    3.9462 C   0  0  0  0  0  0  0  0  0  0  0  0
    1.8229   -6.1578    2.8672 N   0  0  0  0  0  0  0  0  0  0  0  0
   -0.2022   -5.1122    3.7186 N   0  0  0  0  0  0  0  0  0  0  0  0
   -0.9708   -4.7198    4.7411 C   0  0  0  0  0  0  0  0  0  0  0  0
    1.5649    0.0140   -6.9625 H   0  0  0  0  0  0  0  0  0  0  0  0
    0.2355    1.5978   -6.6625 H   0  0  0  0  0  0  0  0  0  0  0  0
    0.2587    1.9995   -8.4004 H   0  0  0  0  0  0  0  0  0  0  0  0
   -1.3672    0.0197   -8.7891 H   0  0  0  0  0  0  0  0  0  0  0  0
   -0.5573   -0.8919   -6.3732 H   0  0  0  0  0  0  0  0  0  0  0  0
   -2.7112    0.2752   -5.0064 H   0  0  0  0  0  0  0  0  0  0  0  0
   -0.9982    0.8727   -4.8878 H   0  0  0  0  0  0  0  0  0  0  0  0
   -1.4123    2.6780   -6.1667 H   0  0  0  0  0  0  0  0  0  0  0  0
   -7.8280    4.2800   -6.0935 H   0  0  0  0  0  0  0  0  0  0  0  0
   -7.3362    4.7710   -4.4060 H   0  0  0  0  0  0  0  0  0  0  0  0
   -5.6833    2.9708   -3.5284 H   0  0  0  0  0  0  0  0  0  0  0  0
   -3.4634    1.9055   -4.0350 H   0  0  0  0  0  0  0  0  0  0  0  0
   -1.4742   -3.3043   -4.1061 H   0  0  0  0  0  0  0  0  0  0  0  0
   -3.1296   -2.4873   -4.0342 H   0  0  0  0  0  0  0  0  0  0  0  0
   -4.1555   -4.5297   -3.2751 H   0  0  0  0  0  0  0  0  0  0  0  0
   -3.3629   -3.4906   -1.3854 H   0  0  0  0  0  0  0  0  0  0  0  0
   -1.4607   -5.3706   -0.5849 H   0  0  0  0  0  0  0  0  0  0  0  0
   -3.2471   -5.7414   -0.6340 H   0  0  0  0  0  0  0  0  0  0  0  0
   -2.8121   -7.2856   -2.2358 H   0  0  0  0  0  0  0  0  0  0  0  0
    0.0476   -5.5983   -3.9388 H   0  0  0  0  0  0  0  0  0  0  0  0
   -0.9264   -9.9445    1.9060 H   0  0  0  0  0  0  0  0  0  0  0  0
   -0.3723  -11.3765    0.8877 H   0  0  0  0  0  0  0  0  0  0  0  0
   -1.8231   -8.4991   -0.3420 H   0  0  0  0  0  0  0  0  0  0  0  0
    1.2915   -2.5488   -0.9215 H   0  0  0  0  0  0  0  0  0  0  0  0
    0.9590   -1.0705   -1.8271 H   0  0  0  0  0  0  0  0  0  0  0  0
    1.6864    0.2971    0.2101 H   0  0  0  0  0  0  0  0  0  0  0  0
    1.2393   -1.7896    1.8774 H   0  0  0  0  0  0  0  0  0  0  0  0
    3.8090   -2.8570    1.8590 H   0  0  0  0  0  0  0  0  0  0  0  0
    2.5667   -3.5281    0.7978 H   0  0  0  0  0  0  0  0  0  0  0  0
    3.8279   -2.7946   -0.9663 H   0  0  0  0  0  0  0  0  0  0  0  0
    8.0146   -3.2678    1.1766 H   0  0  0  0  0  0  0  0  0  0  0  0
    8.3623    1.2751    0.0333 H   0  0  0  0  0  0  0  0  0  0  0  0
    6.6432    1.8657    0.3435 H   0  0  0  0  0  0  0  0  0  0  0  0
    7.6762    1.3943    1.6974 H   0  0  0  0  0  0  0  0  0  0  0  0
    4.9876    0.2848   -0.0015 H   0  0  0  0  0  0  0  0  0  0  0  0
    0.9524    1.2391    5.5150 H   0  0  0  0  0  0  0  0  0  0  0  0
    2.6960    1.4044    5.7299 H   0  0  0  0  0  0  0  0  0  0  0  0
    1.6020    3.4219    6.4555 H   0  0  0  0  0  0  0  0  0  0  0  0
   -0.0745    4.5430    5.3623 H   0  0  0  0  0  0  0  0  0  0  0  0
    0.3566    5.4538    3.2466 H   0  0  0  0  0  0  0  0  0  0  0  0
    1.4308    4.0056    2.7910 H   0  0  0  0  0  0  0  0  0  0  0  0
    1.6571    5.6578    5.3330 H   0  0  0  0  0  0  0  0  0  0  0  0
    2.0325    7.9940    4.2006 H   0  0  0  0  0  0  0  0  0  0  0  0
    6.3556    8.5696    0.3343 H   0  0  0  0  0  0  0  0  0  0  0  0
    6.4807    9.0680    2.0521 H   0  0  0  0  0  0  0  0  0  0  0  0
    6.4472    3.8480    1.7543 H   0  0  0  0  0  0  0  0  0  0  0  0
   -4.2503    2.3630    3.1665 H   0  0  0  0  0  0  0  0  0  0  0  0
   -2.6592    2.1456    2.3977 H   0  0  0  0  0  0  0  0  0  0  0  0
   -4.6594    4.3871    1.7680 H   0  0  0  0  0  0  0  0  0  0  0  0
   -5.6158    2.8223    0.3586 H   0  0  0  0  0  0  0  0  0  0  0  0
   -3.7148    2.2718   -1.5265 H   0  0  0  0  0  0  0  0  0  0  0  0
   -4.2997    3.9888   -1.2076 H   0  0  0  0  0  0  0  0  0  0  0  0
   -2.0532    2.5243    0.2930 H   0  0  0  0  0  0  0  0  0  0  0  0
    1.3680    5.6571   -4.6501 H   0  0  0  0  0  0  0  0  0  0  0  0
    2.5048    5.1713   -3.3118 H   0  0  0  0  0  0  0  0  0  0  0  0
   -0.4910    6.7913   -2.7081 H   0  0  0  0  0  0  0  0  0  0  0  0
   -2.2720    5.9772   -1.1330 H   0  0  0  0  0  0  0  0  0  0  0  0
   -6.3861   -1.2243    2.8401 H   0  0  0  0  0  0  0  0  0  0  0  0
   -4.9304   -0.2883    3.4395 H   0  0  0  0  0  0  0  0  0  0  0  0
   -5.1846   -2.3760    4.6264 H   0  0  0  0  0  0  0  0  0  0  0  0
   -6.1750   -4.0490    3.3218 H   0  0  0  0  0  0  0  0  0  0  0  0
   -4.2458   -3.8107    1.2070 H   0  0  0  0  0  0  0  0  0  0  0  0
   -4.4138   -5.0790    4.3368 H   0  0  0  0  0  0  0  0  0  0  0  0
   -3.8665   -5.4094    2.6174 H   0  0  0  0  0  0  0  0  0  0  0  0
   -2.2905   -3.7523    2.6910 H   0  0  0  0  0  0  0  0  0  0  0  0
   -3.3717   -3.4835    6.4759 H   0  0  0  0  0  0  0  0  0  0  0  0
    1.4905   -6.7777    2.1037 H   0  0  0  0  0  0  0  0  0  0  0  0
    2.8156   -5.7967    2.9040 H   0  0  0  0  0  0  0  0  0  0  0  0
   -0.5371   -4.9327    2.7313 H   0  0  0  0  0  0  0  0  0  0  0  0
  1  2  1  0
  1121  1  0
  2  3  1  0
  2122  1  0
  2123  1  0
  3  4  1  0
  3  5  1  0
  3124  1  0
  4  8  1  0
  5  7  1  0
  5  6  1  0
  5125  1  0
  6 17  1  0
  7  8  1  0
  7126  1  0
  7127  1  0
  8  9  1  0
  8128  1  0
  9 16  1  0
  9 10  1  0
 10 12  1  0
 10 11  2  0
 12 13  2  0
 13 15  1  0
 13 14  1  0
 14129  1  0
 14130  1  0
 15 16  2  0
 15131  1  0
 16132  1  0
 17 20  1  0
 17 19  2  0
 17 18  1  0
 20 21  1  0
 21 22  1  0
 21133  1  0
 21134  1  0
 22 24  1  0
 22 23  1  0
 22135  1  0
 23 27  1  0
 24 25  1  0
 24 26  1  0
 24136  1  0
 25 39  1  0
 26 27  1  0
 26137  1  0
 26138  1  0
 27 28  1  0
 27139  1  0
 28 38  1  0
 28 29  1  0
 29 30  2  0
 29140  1  0
 30 31  1  0
 31 32  1  0
 31 38  2  0
 32 33  2  0
 32 34  1  0
 34 35  2  0
 35 36  1  0
 35 37  1  0
 36141  1  0
 36142  1  0
 37 38  1  0
 37143  1  0
 39 41  2  0
 39 42  1  0
 39 40  1  0
 42 43  1  0
 43 44  1  0
 43144  1  0
 43145  1  0
 44 46  1  0
 44 45  1  0
 44146  1  0
 45 49  1  0
 46 48  1  0
 46 47  1  0
 46147  1  0
 47 59  1  0
 48 49  1  0
 48148  1  0
 48149  1  0
 49 50  1  0
 49150  1  0
 50 51  1  0
 50 58  1  0
 51 53  1  0
 51 52  2  0
 53 54  1  0
 53151  1  0
 54 55  2  0
 54 56  1  0
 56 57  1  0
 56 58  2  0
 57152  1  0
 57153  1  0
 57154  1  0
 58155  1  0
 59 61  2  0
 59 62  1  0
 59 60  1  0
 62 63  1  0
 63 64  1  0
 63156  1  0
 63157  1  0
 64 66  1  0
 64 65  1  0
 64158  1  0
 65 69  1  0
 66 68  1  0
 66 67  1  0
 66159  1  0
 67 80  1  0
 68 69  1  0
 68160  1  0
 68161  1  0
 69 70  1  0
 69162  1  0
 70 79  1  0
 70 71  1  0
 71 72  2  0
 71163  1  0
 72 73  1  0
 73 79  2  0
 73 74  1  0
 74 76  2  0
 74 75  1  0
 75164  1  0
 75165  1  0
 76 77  1  0
 77 78  2  0
 77166  1  0
 78 79  1  0
 80 83  1  0
 80 82  2  0
 80 81  1  0
 83 84  1  0
 84 85  1  0
 84167  1  0
 84168  1  0
 85 87  1  0
 85 86  1  0
 85169  1  0
 86 90  1  0
 87 88  1  0
 87 89  1  0
 87170  1  0
 88 99  1  0
 89 90  1  0
 89171  1  0
 89172  1  0
 90 91  1  0
 90173  1  0
 91 98  1  0
 91 92  1  0
 92 93  2  0
 92 94  1  0
 94 95  2  0
 95 97  1  0
 95 96  1  0
 96174  1  0
 96175  1  0
 97 98  2  0
 97176  1  0
 98177  1  0
 99100  2  0
 99101  1  0
 99102  1  0
102103  1  0
103104  1  0
103178  1  0
103179  1  0
104105  1  0
104106  1  0
104180  1  0
105109  1  0
106108  1  0
106107  1  0
106181  1  0
107182  1  0
108109  1  0
108183  1  0
108184  1  0
109110  1  0
109185  1  0
110111  1  0
110120  1  0
111112  2  0
111186  1  0
112113  1  0
113114  1  0
113120  2  0
114115  2  0
114116  1  0
116117  2  0
117118  1  0
117119  1  0
118187  1  0
118188  1  0
119120  1  0
119189  1  0
M  CHG  5  18  -1  40  -1  60  -1  81  -1 101  -1
M  END
$$$$
DNA (5'-D(*CP*GP*TP*AP*CP*G)-3')
     RDKit          3D

189203  0  0  0  0  0  0  0  0999 V2000
   -5.7896   -0.5712    6.7593 O   0  0  0  0  0  0  0  0  0  0  0  0
   -4.9561   -0.4031    5.6833 C   0  0  0  0  0  0  0  0  0  0  0  0
   -5.6732   -0.6941    4.3626 C   0  0  0  0  0  0  0  0  0  0  0  0
   -6.1199   -1.9949    4.3778 O   0  0  0  0  0  0  0  0  0  0  0  0
   -4.7432   -0.5399    3.1968 C   0  0  0  0  0  0  0  0  0  0  0  0
   -3.5765    0.1536    3.4863 O   0  0  0  0  0  0  0  0  0  0  0  0
   -4.5076   -1.9774    2.7962 C   0  0  0  0  0  0  0  0  0  0  0  0
   -5.8783   -2.5757    3.1471 C   0  0  0  0  0  0  0  0  0  0  0  0
   -5.7297   -4.0148    3.2521 N   0  0  0  0  0  0  0  0  0  0  0  0
   -6.3228   -4.7147    4.2407 C   0  0  0  0  0  0  0  0  0  0  0  0
   -7.0182   -4.0755    5.0744 O   0  0  0  0  0  0  0  0  0  0  0  0
   -6.2087   -6.0447    4.3756 N   0  0  0  0  0  0  0  0  0  0  0  0
   -5.4750   -6.7877    3.5089 C   0  0  0  0  0  0  0  0  0  0  0  0
   -5.3586   -8.2000    3.6629 N   0  0  0  0  0  0  0  0  0  0  0  0
   -4.8556   -6.1102    2.4879 C   0  0  0  0  0  0  0  0  0  0  0  0
   -4.9931   -4.7348    2.3763 C   0  0  0  0  0  0  0  0  0  0  0  0
   -3.3610    1.4697    2.4641 P   0  0  0  0  0  0  0  0  0  0  0  0
   -4.2387    2.7893    3.0794 O   0  0  0  0  0  0  0  0  0  0  0  0
   -4.0200    1.1245    1.1403 O   0  0  0  0  0  0  0  0  0  0  0  0
   -1.7488    1.8596    2.1923 O   0  0  0  0  0  0  0  0  0  0  0  0
   -1.1268    2.1957    3.3730 C   0  0  0  0  0  0  0  0  0  0  0  0
    0.1857    2.9097    3.1688 C   0  0  0  0  0  0  0  0  0  0  0  0
    0.0080    4.0622    2.4653 O   0  0  0  0  0  0  0  0  0  0  0  0
    1.1036    2.0609    2.3374 C   0  0  0  0  0  0  0  0  0  0  0  0
    2.3637    2.2024    2.7630 O   0  0  0  0  0  0  0  0  0  0  0  0
    0.7870    2.4855    0.9491 C   0  0  0  0  0  0  0  0  0  0  0  0
    0.4740    3.9640    1.1889 C   0  0  0  0  0  0  0  0  0  0  0  0
    1.7009    4.7530    1.1198 N   0  0  0  0  0  0  0  0  0  0  0  0
    2.3573    5.3777    2.1122 C   0  0  0  0  0  0  0  0  0  0  0  0
    3.4473    5.9777    1.5888 N   0  0  0  0  0  0  0  0  0  0  0  0
    3.4474    5.7124    0.2732 C   0  0  0  0  0  0  0  0  0  0  0  0
    4.3340    6.0891   -0.7034 C   0  0  0  0  0  0  0  0  0  0  0  0
    5.3378    6.7900   -0.4487 O   0  0  0  0  0  0  0  0  0  0  0  0
    4.1174    5.6909   -1.9874 N   0  0  0  0  0  0  0  0  0  0  0  0
    3.0433    4.9357   -2.2870 C   0  0  0  0  0  0  0  0  0  0  0  0
    2.8761    4.5505   -3.6570 N   0  0  0  0  0  0  0  0  0  0  0  0
    2.1649    4.5608   -1.3263 N   0  0  0  0  0  0  0  0  0  0  0  0
    2.3551    4.9384   -0.0609 C   0  0  0  0  0  0  0  0  0  0  0  0
    3.3800    1.0635    3.2240 P   0  0  0  0  0  0  0  0  0  0  0  0
    4.0231    1.5240    4.7516 O   0  0  0  0  0  0  0  0  0  0  0  0
    2.7212   -0.2735    3.4720 O   0  0  0  0  0  0  0  0  0  0  0  0
    4.7411    0.7903    2.2771 O   0  0  0  0  0  0  0  0  0  0  0  0
    5.1505   -0.5200    2.2242 C   0  0  0  0  0  0  0  0  0  0  0  0
    6.3421   -0.7128    1.2992 C   0  0  0  0  0  0  0  0  0  0  0  0
    7.4486   -0.0106    1.6400 O   0  0  0  0  0  0  0  0  0  0  0  0
    6.7291   -2.1683    1.3029 C   0  0  0  0  0  0  0  0  0  0  0  0
    5.7247   -2.9562    1.8751 O   0  0  0  0  0  0  0  0  0  0  0  0
    7.9662   -2.1956    2.1667 C   0  0  0  0  0  0  0  0  0  0  0  0
    8.5256   -0.8161    1.8766 C   0  0  0  0  0  0  0  0  0  0  0  0
    9.3839   -0.3021    2.8932 N   0  0  0  0  0  0  0  0  0  0  0  0
   10.4694   -0.9436    3.3406 C   0  0  0  0  0  0  0  0  0  0  0  0
   10.7479   -2.0683    2.8354 O   0  0  0  0  0  0  0  0  0  0  0  0
   11.2710   -0.4394    4.3021 N   0  0  0  0  0  0  0  0  0  0  0  0
   11.0200    0.7686    4.8831 C   0  0  0  0  0  0  0  0  0  0  0  0
   11.7569    1.2412    5.7729 O   0  0  0  0  0  0  0  0  0  0  0  0
    9.9090    1.4515    4.4422 C   0  0  0  0  0  0  0  0  0  0  0  0
    9.5278    2.7869    5.0015 C   0  0  0  0  0  0  0  0  0  0  0  0
    9.1112    0.9006    3.4533 C   0  0  0  0  0  0  0  0  0  0  0  0
    5.2279   -4.1263    0.7571 P   0  0  0  0  0  0  0  0  0  0  0  0
    5.4012   -3.6412   -0.8315 O   0  0  0  0  0  0  0  0  0  0  0  0
    6.0983   -5.3678    0.9738 O   0  0  0  0  0  0  0  0  0  0  0  0
    3.6622   -4.5558    1.1386 O   0  0  0  0  0  0  0  0  0  0  0  0
    2.7410   -4.3566    0.1054 C   0  0  0  0  0  0  0  0  0  0  0  0
    1.3751   -4.4131    0.7411 C   0  0  0  0  0  0  0  0  0  0  0  0
    1.2321   -5.6729    1.3361 O   0  0  0  0  0  0  0  0  0  0  0  0
    0.2257   -4.2606   -0.1928 C   0  0  0  0  0  0  0  0  0  0  0  0
    0.6118   -4.5173   -1.4830 O   0  0  0  0  0  0  0  0  0  0  0  0
   -0.7899   -5.2619    0.3254 C   0  0  0  0  0  0  0  0  0  0  0  0
   -0.1481   -5.7836    1.5678 C   0  0  0  0  0  0  0  0  0  0  0  0
   -0.4283   -4.9699    2.7367 N   0  0  0  0  0  0  0  0  0  0  0  0
   -1.4316   -4.1146    2.9746 C   0  0  0  0  0  0  0  0  0  0  0  0
   -1.2701   -3.5862    4.1977 N   0  0  0  0  0  0  0  0  0  0  0  0
   -0.1634   -4.0981    4.7530 C   0  0  0  0  0  0  0  0  0  0  0  0
    0.4950   -3.9472    5.9417 C   0  0  0  0  0  0  0  0  0  0  0  0
   -0.0627   -3.0395    6.8901 N   0  0  0  0  0  0  0  0  0  0  0  0
    1.6217   -4.6167    6.2234 N   0  0  0  0  0  0  0  0  0  0  0  0
    2.1221   -5.4618    5.3126 C   0  0  0  0  0  0  0  0  0  0  0  0
    1.5152   -5.6540    4.1161 N   0  0  0  0  0  0  0  0  0  0  0  0
    0.3789   -4.9830    3.8244 C   0  0  0  0  0  0  0  0  0  0  0  0
    0.1683   -3.1972   -2.4383 P   0  0  0  0  0  0  0  0  0  0  0  0
    1.4685   -2.1289   -2.5606 O   0  0  0  0  0  0  0  0  0  0  0  0
   -0.1587   -3.7337   -3.8201 O   0  0  0  0  0  0  0  0  0  0  0  0
   -1.1889   -2.4442   -1.7554 O   0  0  0  0  0  0  0  0  0  0  0  0
   -1.6478   -1.4082   -2.5271 C   0  0  0  0  0  0  0  0  0  0  0  0
   -2.8494   -0.6754   -1.9216 C   0  0  0  0  0  0  0  0  0  0  0  0
   -3.8628   -1.6104   -1.7863 O   0  0  0  0  0  0  0  0  0  0  0  0
   -3.3161    0.3597   -2.8866 C   0  0  0  0  0  0  0  0  0  0  0  0
   -4.2123    1.2456   -2.2673 O   0  0  0  0  0  0  0  0  0  0  0  0
   -4.1536   -0.4968   -3.8330 C   0  0  0  0  0  0  0  0  0  0  0  0
   -4.6970   -1.5211   -2.8634 C   0  0  0  0  0  0  0  0  0  0  0  0
   -5.9792   -0.9906   -2.4101 N   0  0  0  0  0  0  0  0  0  0  0  0
   -6.9648   -0.8649   -3.3269 C   0  0  0  0  0  0  0  0  0  0  0  0
   -6.7955   -1.1949   -4.5457 O   0  0  0  0  0  0  0  0  0  0  0  0
   -8.1887   -0.3841   -3.0162 N   0  0  0  0  0  0  0  0  0  0  0  0
   -8.4570   -0.0104   -1.7526 C   0  0  0  0  0  0  0  0  0  0  0  0
   -9.7530    0.4850   -1.4764 N   0  0  0  0  0  0  0  0  0  0  0  0
   -7.4592   -0.1355   -0.8168 C   0  0  0  0  0  0  0  0  0  0  0  0
   -6.2099   -0.6275   -1.1373 C   0  0  0  0  0  0  0  0  0  0  0  0
   -3.8267    2.8485   -2.6946 P   0  0  0  0  0  0  0  0  0  0  0  0
   -5.1212    3.6308   -2.7197 O   0  0  0  0  0  0  0  0  0  0  0  0
   -2.8240    3.4698   -1.5069 O   0  0  0  0  0  0  0  0  0  0  0  0
   -3.1354    2.9129   -4.2137 O   0  0  0  0  0  0  0  0  0  0  0  0
   -2.4724    4.0853   -4.4737 C   0  0  0  0  0  0  0  0  0  0  0  0
   -1.6522    3.9214   -5.7679 C   0  0  0  0  0  0  0  0  0  0  0  0
   -2.5221    3.6124   -6.7893 O   0  0  0  0  0  0  0  0  0  0  0  0
   -0.8990    5.1457   -6.1420 C   0  0  0  0  0  0  0  0  0  0  0  0
    0.4252    5.1406   -5.6970 O   0  0  0  0  0  0  0  0  0  0  0  0
   -0.9737    5.1553   -7.6507 C   0  0  0  0  0  0  0  0  0  0  0  0
   -2.0201    4.1479   -7.9557 C   0  0  0  0  0  0  0  0  0  0  0  0
   -1.6216    3.1020   -8.8761 N   0  0  0  0  0  0  0  0  0  0  0  0
   -2.3649    2.7196   -9.9597 C   0  0  0  0  0  0  0  0  0  0  0  0
   -1.7359    1.7298  -10.6134 N   0  0  0  0  0  0  0  0  0  0  0  0
   -0.5804    1.4444   -9.9802 C   0  0  0  0  0  0  0  0  0  0  0  0
    0.4191    0.5293  -10.2306 C   0  0  0  0  0  0  0  0  0  0  0  0
    0.3488   -0.2607  -11.2335 O   0  0  0  0  0  0  0  0  0  0  0  0
    1.4809    0.4866   -9.3862 N   0  0  0  0  0  0  0  0  0  0  0  0
    1.5002    1.3501   -8.3382 C   0  0  0  0  0  0  0  0  0  0  0  0
    2.6057    1.2945   -7.4691 N   0  0  0  0  0  0  0  0  0  0  0  0
    0.5236    2.2352   -8.1037 N   0  0  0  0  0  0  0  0  0  0  0  0
   -0.5423    2.3204   -8.9007 C   0  0  0  0  0  0  0  0  0  0  0  0
   -6.5838   -1.1288    6.5752 H   0  0  0  0  0  0  0  0  0  0  0  0
   -4.0120   -0.9822    5.7360 H   0  0  0  0  0  0  0  0  0  0  0  0
   -4.6284    0.6737    5.6871 H   0  0  0  0  0  0  0  0  0  0  0  0
   -6.5435   -0.0115    4.2846 H   0  0  0  0  0  0  0  0  0  0  0  0
   -5.2146   -0.0278    2.3359 H   0  0  0  0  0  0  0  0  0  0  0  0
   -4.2993   -2.0839    1.7217 H   0  0  0  0  0  0  0  0  0  0  0  0
   -3.7641   -2.4718    3.4609 H   0  0  0  0  0  0  0  0  0  0  0  0
   -6.6280   -2.3636    2.3777 H   0  0  0  0  0  0  0  0  0  0  0  0
   -6.1739   -8.8531    3.6231 H   0  0  0  0  0  0  0  0  0  0  0  0
   -4.4250   -8.6533    3.8281 H   0  0  0  0  0  0  0  0  0  0  0  0
   -4.2591   -6.6943    1.7801 H   0  0  0  0  0  0  0  0  0  0  0  0
   -4.5030   -4.1993    1.5684 H   0  0  0  0  0  0  0  0  0  0  0  0
   -0.9040    1.2486    3.9214 H   0  0  0  0  0  0  0  0  0  0  0  0
   -1.8093    2.8173    3.9856 H   0  0  0  0  0  0  0  0  0  0  0  0
    0.7096    3.0665    4.1463 H   0  0  0  0  0  0  0  0  0  0  0  0
    0.7708    1.0078    2.4287 H   0  0  0  0  0  0  0  0  0  0  0  0
    1.6227    2.4812    0.2519 H   0  0  0  0  0  0  0  0  0  0  0  0
   -0.1286    2.0041    0.5968 H   0  0  0  0  0  0  0  0  0  0  0  0
   -0.2638    4.3692    0.4897 H   0  0  0  0  0  0  0  0  0  0  0  0
    2.0237    5.3711    3.1473 H   0  0  0  0  0  0  0  0  0  0  0  0
    3.2108    5.1945   -4.4283 H   0  0  0  0  0  0  0  0  0  0  0  0
    2.4336    3.6538   -3.9047 H   0  0  0  0  0  0  0  0  0  0  0  0
    1.3328    3.9762   -1.5797 H   0  0  0  0  0  0  0  0  0  0  0  0
    5.4213   -0.9152    3.2014 H   0  0  0  0  0  0  0  0  0  0  0  0
    4.3374   -1.1550    1.8099 H   0  0  0  0  0  0  0  0  0  0  0  0
    6.0398   -0.3862    0.2634 H   0  0  0  0  0  0  0  0  0  0  0  0
    6.9786   -2.5246    0.2809 H   0  0  0  0  0  0  0  0  0  0  0  0
    7.6838   -2.3042    3.2356 H   0  0  0  0  0  0  0  0  0  0  0  0
    8.6610   -3.0033    1.9267 H   0  0  0  0  0  0  0  0  0  0  0  0
    9.1358   -0.9469    0.9373 H   0  0  0  0  0  0  0  0  0  0  0  0
   12.1191   -0.9748    4.6267 H   0  0  0  0  0  0  0  0  0  0  0  0
   10.3210    3.2062    5.6375 H   0  0  0  0  0  0  0  0  0  0  0  0
    9.3010    3.5213    4.1883 H   0  0  0  0  0  0  0  0  0  0  0  0
    8.5757    2.6766    5.5755 H   0  0  0  0  0  0  0  0  0  0  0  0
    8.2454    1.4576    3.1256 H   0  0  0  0  0  0  0  0  0  0  0  0
    2.8929   -5.2298   -0.5907 H   0  0  0  0  0  0  0  0  0  0  0  0
    2.9289   -3.4249   -0.4544 H   0  0  0  0  0  0  0  0  0  0  0  0
    1.3320   -3.5970    1.4916 H   0  0  0  0  0  0  0  0  0  0  0  0
   -0.2809   -3.2559   -0.0953 H   0  0  0  0  0  0  0  0  0  0  0  0
   -0.7970   -6.0999   -0.4119 H   0  0  0  0  0  0  0  0  0  0  0  0
   -1.7935   -4.8354    0.4517 H   0  0  0  0  0  0  0  0  0  0  0  0
   -0.4091   -6.8242    1.7545 H   0  0  0  0  0  0  0  0  0  0  0  0
   -2.2342   -3.8966    2.2831 H   0  0  0  0  0  0  0  0  0  0  0  0
    0.1461   -2.0032    6.7652 H   0  0  0  0  0  0  0  0  0  0  0  0
   -0.6549   -3.3240    7.6903 H   0  0  0  0  0  0  0  0  0  0  0  0
    3.0360   -6.0334    5.4893 H   0  0  0  0  0  0  0  0  0  0  0  0
   -0.8488   -0.6980   -2.8296 H   0  0  0  0  0  0  0  0  0  0  0  0
   -2.0301   -1.8322   -3.4904 H   0  0  0  0  0  0  0  0  0  0  0  0
   -2.4986   -0.2713   -0.9595 H   0  0  0  0  0  0  0  0  0  0  0  0
   -2.5255    0.8979   -3.4367 H   0  0  0  0  0  0  0  0  0  0  0  0
   -3.4841   -0.9394   -4.6085 H   0  0  0  0  0  0  0  0  0  0  0  0
   -4.9174    0.1658   -4.2679 H   0  0  0  0  0  0  0  0  0  0  0  0
   -4.8316   -2.5131   -3.3456 H   0  0  0  0  0  0  0  0  0  0  0  0
  -10.5621    0.0397   -1.9767 H   0  0  0  0  0  0  0  0  0  0  0  0
   -9.9035    1.2795   -0.7873 H   0  0  0  0  0  0  0  0  0  0  0  0
   -7.6661    0.1616    0.1875 H   0  0  0  0  0  0  0  0  0  0  0  0
   -5.4144   -0.7283   -0.3923 H   0  0  0  0  0  0  0  0  0  0  0  0
   -3.1237    4.9792   -4.5335 H   0  0  0  0  0  0  0  0  0  0  0  0
   -1.7748    4.2601   -3.6162 H   0  0  0  0  0  0  0  0  0  0  0  0
   -0.9839    3.0620   -5.5655 H   0  0  0  0  0  0  0  0  0  0  0  0
   -1.4354    6.0616   -5.7562 H   0  0  0  0  0  0  0  0  0  0  0  0
    0.5426    5.6013   -4.8355 H   0  0  0  0  0  0  0  0  0  0  0  0
    0.0104    4.9691   -8.1305 H   0  0  0  0  0  0  0  0  0  0  0  0
   -1.2517    6.1904   -7.9743 H   0  0  0  0  0  0  0  0  0  0  0  0
   -2.8896    4.7168   -8.4131 H   0  0  0  0  0  0  0  0  0  0  0  0
   -3.3312    3.1422  -10.2668 H   0  0  0  0  0  0  0  0  0  0  0  0
    3.5676    1.3035   -7.9157 H   0  0  0  0  0  0  0  0  0  0  0  0
    2.5489    1.2456   -6.4280 H   0  0  0  0  0  0  0  0  0  0  0  0
    0.6054    2.8530   -7.2959 H   0  0  0  0  0  0  0  0  0  0  0  0
  1  2  1  0
  1121  1  0
  2  3  1  0
  2122  1  0
  2123  1  0
  3  4  1  0
  3  5  1  0
  3124  1  0
  4  8  1  0
  5  7  1  0
  5  6  1  0
  5125  1  0
  6 17  1  0
  7  8  1  0
  7126  1  0
  7127  1  0
  8  9  1  0
  8128  1  0
  9 16  1  0
  9 10  1  0
 10 12  1  0
 10 11  2  0
 12 13  2  0
 13 15  1  0
 13 14  1  0
 14129  1  0
 14130  1  0
 15 16  2  0
 15131  1  0
 16132  1  0
 17 20  1  0
 17 19  2  0
 17 18  1  0
 20 21  1  0
 21 22  1  0
 21133  1  0
 21134  1  0
 22 24  1  0
 22 23  1  0
 22135  1  0
 23 27  1  0
 24 25  1  0
 24 26  1  0
 24136  1  0
 25 39  1  0
 26 27  1  0
 26137  1  0
 26138  1  0
 27 28  1  0
 27139  1  0
 28 38  1  0
 28 29  1  0
 29 30  2  0
 29140  1  0
 30 31  1  0
 31 32  1  0
 31 38  2  0
 32 33  2  0
 32 34  1  0
 34 35  2  0
 35 36  1  0
 35 37  1  0
 36141  1  0
 36142  1  0
 37 38  1  0
 37143  1  0
 39 41  2  0
 39 42  1  0
 39 40  1  0
 42 43  1  0
 43 44  1  0
 43144  1  0
 43145  1  0
 44 46  1  0
 44 45  1  0
 44146  1  0
 45 49  1  0
 46 48  1  0
 46 47  1  0
 46147  1  0
 47 59  1  0
 48 49  1  0
 48148  1  0
 48149  1  0
 49 50  1  0
 49150  1  0
 50 51  1  0
 50 58  1  0
 51 53  1  0
 51 52  2  0
 53 54  1  0
 53151  1  0
 54 55  2  0
 54 56  1  0
 56 57  1  0
 56 58  2  0
 57152  1  0
 57153  1  0
 57154  1  0
 58155  1  0
 59 61  2  0
 59 62  1  0
 59 60  1  0
 62 63  1  0
 63 64  1  0
 63156  1  0
 63157  1  0
 64 66  1  0
 64 65  1  0
 64158  1  0
 65 69  1  0
 66 68  1  0
 66 67  1  0
 66159  1  0
 67 80  1  0
 68 69  1  0
 68160  1  0
 68161  1  0
 69 70  1  0
 69162  1  0
 70 79  1  0
 70 71  1  0
 71 72  2  0
 71163  1  0
 72 73  1  0
 73 79  2  0
 73 74  1  0
 74 76  2  0
 74 75  1  0
 75164  1  0
 75165  1  0
 76 77  1  0
 77 78  2  0
 77166  1  0
 78 79  1  0
 80 83  1  0
 80 82  2  0
 80 81  1  0
 83 84  1  0
 84 85  1  0
 84167  1  0
 84168  1  0
 85 87  1  0
 85 86  1  0
 85169  1  0
 86 90  1  0
 87 88  1  0
 87 89  1  0
 87170  1  0
 88 99  1  0
 89 90  1  0
 89171  1  0
 89172  1  0
 90 91  1  0
 90173  1  0
 91 98  1  0
 91 92  1  0
 92 93  2  0
 92 94  1  0
 94 95  2  0
 95 97  1  0
 95 96  1  0
 96174  1  0
 96175  1  0
 97 98  2  0
 97176  1  0
 98177  1  0
 99100  2  0
 99101  1  0
 99102  1  0
102103  1  0
103104  1  0
103178  1  0
103179  1  0
104105  1  0
104106  1  0
104180  1  0
105109  1  0
106108  1  0
106107  1  0
106181  1  0
107182  1  0
108109  1  0
108183  1  0
108184  1  0
109110  1  0
109185  1  0
110111  1  0
110120  1  0
111112  2  0
111186  1  0
112113  1  0
113114  1  0
113120  2  0
114115  2  0
114116  1  0
116117  2  0
117118  1  0
117119  1  0
118187  1  0
118188  1  0
119120  1  0
119189  1  0
M  CHG  5  18  -1  40  -1  60  -1  81  -1 101  -1
M  END
$$$$
DNA (5'-D(*CP*GP*TP*AP*CP*G)-3')
     RDKit          3D

189203  0  0  0  0  0  0  0  0999 V2000
   -2.1737   -2.1835   -7.6573 O   0  0  0  0  0  0  0  0  0  0  0  0
   -2.3701   -2.1834   -6.2798 C   0  0  0  0  0  0  0  0  0  0  0  0
   -1.1463   -1.5630   -5.5989 C   0  0  0  0  0  0  0  0  0  0  0  0
   -1.0240   -0.2798   -6.0710 O   0  0  0  0  0  0  0  0  0  0  0  0
    0.0551   -2.3456   -6.0245 C   0  0  0  0  0  0  0  0  0  0  0  0
    0.9199   -2.5034   -4.9436 O   0  0  0  0  0  0  0  0  0  0  0  0
    0.7176   -1.3740   -7.0079 C   0  0  0  0  0  0  0  0  0  0  0  0
    0.3003   -0.0458   -6.4162 C   0  0  0  0  0  0  0  0  0  0  0  0
    0.3748    1.0017   -7.4104 N   0  0  0  0  0  0  0  0  0  0  0  0
   -0.7276    1.5393   -7.9460 C   0  0  0  0  0  0  0  0  0  0  0  0
   -1.8741    1.1374   -7.5877 O   0  0  0  0  0  0  0  0  0  0  0  0
   -0.6003    2.5144   -8.8720 N   0  0  0  0  0  0  0  0  0  0  0  0
    0.5988    2.9761   -9.2858 C   0  0  0  0  0  0  0  0  0  0  0  0
    0.7471    3.9975  -10.2542 N   0  0  0  0  0  0  0  0  0  0  0  0
    1.7497    2.4370   -8.7474 C   0  0  0  0  0  0  0  0  0  0  0  0
    1.5807    1.4360   -7.7979 C   0  0  0  0  0  0  0  0  0  0  0  0
    1.2739   -4.1549   -4.8485 P   0  0  0  0  0  0  0  0  0  0  0  0
   -0.1237   -5.0913   -4.7665 O   0  0  0  0  0  0  0  0  0  0  0  0
    2.0987   -4.5963   -6.0435 O   0  0  0  0  0  0  0  0  0  0  0  0
    2.2150   -4.4238   -3.4844 O   0  0  0  0  0  0  0  0  0  0  0  0
    2.8757   -5.6656   -3.5437 C   0  0  0  0  0  0  0  0  0  0  0  0
    3.8486   -5.7303   -2.4089 C   0  0  0  0  0  0  0  0  0  0  0  0
    4.5786   -6.9124   -2.3513 O   0  0  0  0  0  0  0  0  0  0  0  0
    3.1748   -5.6032   -1.0597 C   0  0  0  0  0  0  0  0  0  0  0  0
    2.1727   -6.5372   -0.9864 O   0  0  0  0  0  0  0  0  0  0  0  0
    4.2946   -6.0843   -0.1658 C   0  0  0  0  0  0  0  0  0  0  0  0
    4.9605   -7.1069   -1.0522 C   0  0  0  0  0  0  0  0  0  0  0  0
    4.5694   -8.4602   -0.6413 N   0  0  0  0  0  0  0  0  0  0  0  0
    3.8411   -9.3646   -1.3139 C   0  0  0  0  0  0  0  0  0  0  0  0
    3.7458  -10.4614   -0.5418 N   0  0  0  0  0  0  0  0  0  0  0  0
    4.4144  -10.2309    0.6031 C   0  0  0  0  0  0  0  0  0  0  0  0
    4.6667  -10.9640    1.7544 C   0  0  0  0  0  0  0  0  0  0  0  0
    4.2190  -12.1213    1.8698 O   0  0  0  0  0  0  0  0  0  0  0  0
    5.3909  -10.4631    2.7713 N   0  0  0  0  0  0  0  0  0  0  0  0
    5.8890   -9.2180    2.6805 C   0  0  0  0  0  0  0  0  0  0  0  0
    6.6627   -8.6253    3.7163 N   0  0  0  0  0  0  0  0  0  0  0  0
    5.6801   -8.4432    1.5803 N   0  0  0  0  0  0  0  0  0  0  0  0
    4.9489   -8.9597    0.5626 C   0  0  0  0  0  0  0  0  0  0  0  0
    0.6746   -5.9544   -0.5469 P   0  0  0  0  0  0  0  0  0  0  0  0
   -0.0591   -7.1647    0.4132 O   0  0  0  0  0  0  0  0  0  0  0  0
   -0.1761   -5.7860   -1.7576 O   0  0  0  0  0  0  0  0  0  0  0  0
    0.7304   -4.5536    0.3937 O   0  0  0  0  0  0  0  0  0  0  0  0
   -0.4222   -4.5737    1.1933 C   0  0  0  0  0  0  0  0  0  0  0  0
   -0.4642   -3.4201    2.1744 C   0  0  0  0  0  0  0  0  0  0  0  0
   -1.6185   -3.5235    2.9188 O   0  0  0  0  0  0  0  0  0  0  0  0
    0.6477   -3.5271    3.1951 C   0  0  0  0  0  0  0  0  0  0  0  0
    1.7937   -4.0405    2.6320 O   0  0  0  0  0  0  0  0  0  0  0  0
    0.0581   -4.4553    4.2426 C   0  0  0  0  0  0  0  0  0  0  0  0
   -1.4028   -4.5415    3.8409 C   0  0  0  0  0  0  0  0  0  0  0  0
   -2.2776   -4.3597    4.9640 N   0  0  0  0  0  0  0  0  0  0  0  0
   -2.5432   -3.1556    5.5167 C   0  0  0  0  0  0  0  0  0  0  0  0
   -1.9674   -2.1596    4.9812 O   0  0  0  0  0  0  0  0  0  0  0  0
   -3.3701   -3.0327    6.5711 N   0  0  0  0  0  0  0  0  0  0  0  0
   -3.9794   -4.0933    7.1369 C   0  0  0  0  0  0  0  0  0  0  0  0
   -4.7529   -4.0028    8.1197 O   0  0  0  0  0  0  0  0  0  0  0  0
   -3.7331   -5.3400    6.6004 C   0  0  0  0  0  0  0  0  0  0  0  0
   -4.3552   -6.5509    7.1528 C   0  0  0  0  0  0  0  0  0  0  0  0
   -2.8814   -5.4510    5.5170 C   0  0  0  0  0  0  0  0  0  0  0  0
    3.0967   -2.9880    2.7562 P   0  0  0  0  0  0  0  0  0  0  0  0
    3.8031   -3.1566    4.3036 O   0  0  0  0  0  0  0  0  0  0  0  0
    4.1356   -3.2496    1.7145 O   0  0  0  0  0  0  0  0  0  0  0  0
    2.5151   -1.4027    2.6281 O   0  0  0  0  0  0  0  0  0  0  0  0
    3.5282   -0.4756    2.6728 C   0  0  0  0  0  0  0  0  0  0  0  0
    3.0505    0.9398    2.8262 C   0  0  0  0  0  0  0  0  0  0  0  0
    2.3297    1.0112    4.0177 O   0  0  0  0  0  0  0  0  0  0  0  0
    2.0367    1.3380    1.7943 C   0  0  0  0  0  0  0  0  0  0  0  0
    1.1716    0.2901    1.5401 O   0  0  0  0  0  0  0  0  0  0  0  0
    1.3376    2.4815    2.5113 C   0  0  0  0  0  0  0  0  0  0  0  0
    1.5755    2.1699    3.9496 C   0  0  0  0  0  0  0  0  0  0  0  0
    0.3071    1.9116    4.6129 N   0  0  0  0  0  0  0  0  0  0  0  0
   -0.2586    0.7390    4.9445 C   0  0  0  0  0  0  0  0  0  0  0  0
   -1.4526    0.9899    5.5490 N   0  0  0  0  0  0  0  0  0  0  0  0
   -1.5971    2.3266    5.5769 C   0  0  0  0  0  0  0  0  0  0  0  0
   -2.5803    3.1881    6.0527 C   0  0  0  0  0  0  0  0  0  0  0  0
   -3.7120    2.5481    6.6573 N   0  0  0  0  0  0  0  0  0  0  0  0
   -2.4759    4.5181    5.9532 N   0  0  0  0  0  0  0  0  0  0  0  0
   -1.3822    5.0797    5.3713 C   0  0  0  0  0  0  0  0  0  0  0  0
   -0.4116    4.2791    4.8997 N   0  0  0  0  0  0  0  0  0  0  0  0
   -0.5014    2.9386    4.9924 C   0  0  0  0  0  0  0  0  0  0  0  0
    0.9990    0.0437   -0.1326 P   0  0  0  0  0  0  0  0  0  0  0  0
   -0.5599   -0.5420   -0.3899 O   0  0  0  0  0  0  0  0  0  0  0  0
    1.9946   -0.9420   -0.6417 O   0  0  0  0  0  0  0  0  0  0  0  0
    1.1113    1.5598   -0.9031 O   0  0  0  0  0  0  0  0  0  0  0  0
    1.6715    1.4832   -2.1533 C   0  0  0  0  0  0  0  0  0  0  0  0
    1.9617    2.8553   -2.7386 C   0  0  0  0  0  0  0  0  0  0  0  0
    2.8427    3.5383   -1.9210 O   0  0  0  0  0  0  0  0  0  0  0  0
    0.7429    3.7295   -2.7402 C   0  0  0  0  0  0  0  0  0  0  0  0
   -0.0499    3.5769   -3.8847 O   0  0  0  0  0  0  0  0  0  0  0  0
    1.3803    5.1128   -2.8172 C   0  0  0  0  0  0  0  0  0  0  0  0
    2.6656    4.8924   -2.0941 C   0  0  0  0  0  0  0  0  0  0  0  0
    2.6648    5.5660   -0.8199 N   0  0  0  0  0  0  0  0  0  0  0  0
    3.8433    5.9862   -0.3106 C   0  0  0  0  0  0  0  0  0  0  0  0
    4.8982    5.7752   -0.9662 O   0  0  0  0  0  0  0  0  0  0  0  0
    3.9496    6.6223    0.8671 N   0  0  0  0  0  0  0  0  0  0  0  0
    2.8514    6.8794    1.6195 C   0  0  0  0  0  0  0  0  0  0  0  0
    2.9303    7.5457    2.8639 N   0  0  0  0  0  0  0  0  0  0  0  0
    1.6456    6.4558    1.1100 C   0  0  0  0  0  0  0  0  0  0  0  0
    1.5697    5.8124   -0.0888 C   0  0  0  0  0  0  0  0  0  0  0  0
   -1.6542    3.3632   -3.3408 P   0  0  0  0  0  0  0  0  0  0  0  0
   -1.6015    2.5972   -2.0536 O   0  0  0  0  0  0  0  0  0  0  0  0
   -2.4656    2.4997   -4.5670 O   0  0  0  0  0  0  0  0  0  0  0  0
   -2.3888    4.8566   -3.1430 O   0  0  0  0  0  0  0  0  0  0  0  0
   -3.4912    4.7471   -2.2887 C   0  0  0  0  0  0  0  0  0  0  0  0
   -4.1700    6.0863   -2.1521 C   0  0  0  0  0  0  0  0  0  0  0  0
   -5.2741    5.9632   -1.2880 O   0  0  0  0  0  0  0  0  0  0  0  0
   -3.2742    7.1067   -1.4887 C   0  0  0  0  0  0  0  0  0  0  0  0
   -2.8190    8.0347   -2.4272 O   0  0  0  0  0  0  0  0  0  0  0  0
   -4.1838    7.8555   -0.5201 C   0  0  0  0  0  0  0  0  0  0  0  0
   -5.5311    7.2572   -0.8543 C   0  0  0  0  0  0  0  0  0  0  0  0
   -6.3514    7.2191    0.3333 N   0  0  0  0  0  0  0  0  0  0  0  0
   -7.1383    8.2501    0.7068 C   0  0  0  0  0  0  0  0  0  0  0  0
   -7.7939    7.9550    1.8448 N   0  0  0  0  0  0  0  0  0  0  0  0
   -7.4226    6.7093    2.2133 C   0  0  0  0  0  0  0  0  0  0  0  0
   -7.7881    5.9328    3.2875 C   0  0  0  0  0  0  0  0  0  0  0  0
   -8.6005    6.3724    4.1210 O   0  0  0  0  0  0  0  0  0  0  0  0
   -7.2206    4.7067    3.3650 N   0  0  0  0  0  0  0  0  0  0  0  0
   -6.3475    4.2922    2.4282 C   0  0  0  0  0  0  0  0  0  0  0  0
   -5.7833    2.9825    2.5709 N   0  0  0  0  0  0  0  0  0  0  0  0
   -5.9853    5.0503    1.3723 N   0  0  0  0  0  0  0  0  0  0  0  0
   -6.5246    6.2729    1.2570 C   0  0  0  0  0  0  0  0  0  0  0  0
   -3.0384   -2.0904   -8.0936 H   0  0  0  0  0  0  0  0  0  0  0  0
   -2.5451   -3.2115   -5.9088 H   0  0  0  0  0  0  0  0  0  0  0  0
   -3.2130   -1.4946   -6.0666 H   0  0  0  0  0  0  0  0  0  0  0  0
   -1.3174   -1.6073   -4.4989 H   0  0  0  0  0  0  0  0  0  0  0  0
   -0.1601   -3.3079   -6.5125 H   0  0  0  0  0  0  0  0  0  0  0  0
    1.8093   -1.5243   -7.0418 H   0  0  0  0  0  0  0  0  0  0  0  0
    0.2086   -1.5444   -7.9874 H   0  0  0  0  0  0  0  0  0  0  0  0
    0.9592    0.1503   -5.5376 H   0  0  0  0  0  0  0  0  0  0  0  0
    1.0465    4.9413   -9.9122 H   0  0  0  0  0  0  0  0  0  0  0  0
    0.5789    3.8723  -11.2742 H   0  0  0  0  0  0  0  0  0  0  0  0
    2.7258    2.7791   -9.0505 H   0  0  0  0  0  0  0  0  0  0  0  0
    2.4667    1.0025   -7.3672 H   0  0  0  0  0  0  0  0  0  0  0  0
    2.0869   -6.4404   -3.4576 H   0  0  0  0  0  0  0  0  0  0  0  0
    3.3711   -5.7613   -4.5118 H   0  0  0  0  0  0  0  0  0  0  0  0
    4.5748   -4.9042   -2.4845 H   0  0  0  0  0  0  0  0  0  0  0  0
    2.8662   -4.5709   -0.8340 H   0  0  0  0  0  0  0  0  0  0  0  0
    3.9204   -6.5246    0.7805 H   0  0  0  0  0  0  0  0  0  0  0  0
    4.9899   -5.2349    0.0155 H   0  0  0  0  0  0  0  0  0  0  0  0
    6.0585   -7.0040   -0.8944 H   0  0  0  0  0  0  0  0  0  0  0  0
    3.4122   -9.2315   -2.2971 H   0  0  0  0  0  0  0  0  0  0  0  0
    6.1916   -8.4846    4.6503 H   0  0  0  0  0  0  0  0  0  0  0  0
    7.6724   -8.3303    3.5752 H   0  0  0  0  0  0  0  0  0  0  0  0
    6.0731   -7.4837    1.5276 H   0  0  0  0  0  0  0  0  0  0  0  0
   -1.2844   -4.5140    0.5008 H   0  0  0  0  0  0  0  0  0  0  0  0
   -0.4709   -5.5590    1.6939 H   0  0  0  0  0  0  0  0  0  0  0  0
   -0.3944   -2.4720    1.6377 H   0  0  0  0  0  0  0  0  0  0  0  0
    0.8486   -2.5161    3.5966 H   0  0  0  0  0  0  0  0  0  0  0  0
    0.5575   -5.4411    4.2403 H   0  0  0  0  0  0  0  0  0  0  0  0
    0.1909   -4.0261    5.2457 H   0  0  0  0  0  0  0  0  0  0  0  0
   -1.6302   -5.5280    3.3636 H   0  0  0  0  0  0  0  0  0  0  0  0
   -3.5649   -2.1065    6.9864 H   0  0  0  0  0  0  0  0  0  0  0  0
   -3.6503   -7.1052    7.8058 H   0  0  0  0  0  0  0  0  0  0  0  0
   -5.2158   -6.2300    7.7630 H   0  0  0  0  0  0  0  0  0  0  0  0
   -4.7116   -7.2152    6.3219 H   0  0  0  0  0  0  0  0  0  0  0  0
   -2.6981   -6.4350    5.1086 H   0  0  0  0  0  0  0  0  0  0  0  0
    4.2328   -0.7252    3.4955 H   0  0  0  0  0  0  0  0  0  0  0  0
    4.1123   -0.5473    1.7279 H   0  0  0  0  0  0  0  0  0  0  0  0
    3.9065    1.6597    2.8718 H   0  0  0  0  0  0  0  0  0  0  0  0
    2.5113    1.7223    0.8618 H   0  0  0  0  0  0  0  0  0  0  0  0
    1.9060    3.4186    2.2524 H   0  0  0  0  0  0  0  0  0  0  0  0
    0.3019    2.6203    2.2062 H   0  0  0  0  0  0  0  0  0  0  0  0
    2.1220    2.9896    4.4648 H   0  0  0  0  0  0  0  0  0  0  0  0
    0.2088   -0.2144    4.7386 H   0  0  0  0  0  0  0  0  0  0  0  0
   -3.9014    2.7443    7.6723 H   0  0  0  0  0  0  0  0  0  0  0  0
   -4.2823    1.9283    6.0683 H   0  0  0  0  0  0  0  0  0  0  0  0
   -1.3447    6.1596    5.3155 H   0  0  0  0  0  0  0  0  0  0  0  0
    2.5960    0.8933   -2.1560 H   0  0  0  0  0  0  0  0  0  0  0  0
    0.9345    1.0012   -2.8570 H   0  0  0  0  0  0  0  0  0  0  0  0
    2.3236    2.7656   -3.7852 H   0  0  0  0  0  0  0  0  0  0  0  0
    0.1159    3.6331   -1.8484 H   0  0  0  0  0  0  0  0  0  0  0  0
    1.5815    5.3436   -3.8943 H   0  0  0  0  0  0  0  0  0  0  0  0
    0.7659    5.9124   -2.4099 H   0  0  0  0  0  0  0  0  0  0  0  0
    3.5108    5.2904   -2.7340 H   0  0  0  0  0  0  0  0  0  0  0  0
    2.9820    6.9427    3.7188 H   0  0  0  0  0  0  0  0  0  0  0  0
    2.9396    8.5654    2.9770 H   0  0  0  0  0  0  0  0  0  0  0  0
    0.7685    6.6666    1.7170 H   0  0  0  0  0  0  0  0  0  0  0  0
    0.6051    5.5017   -0.4394 H   0  0  0  0  0  0  0  0  0  0  0  0
   -4.2223    4.0087   -2.6567 H   0  0  0  0  0  0  0  0  0  0  0  0
   -3.0732    4.4530   -1.2856 H   0  0  0  0  0  0  0  0  0  0  0  0
   -4.5217    6.4238   -3.1368 H   0  0  0  0  0  0  0  0  0  0  0  0
   -2.4475    6.6088   -0.9813 H   0  0  0  0  0  0  0  0  0  0  0  0
   -3.1497    7.7880   -3.3372 H   0  0  0  0  0  0  0  0  0  0  0  0
   -4.1769    8.9422   -0.6951 H   0  0  0  0  0  0  0  0  0  0  0  0
   -3.8801    7.6236    0.5138 H   0  0  0  0  0  0  0  0  0  0  0  0
   -6.0297    7.8418   -1.6615 H   0  0  0  0  0  0  0  0  0  0  0  0
   -7.2588    9.2074    0.1910 H   0  0  0  0  0  0  0  0  0  0  0  0
   -5.9301    2.4201    3.4238 H   0  0  0  0  0  0  0  0  0  0  0  0
   -5.2016    2.5593    1.8042 H   0  0  0  0  0  0  0  0  0  0  0  0
   -5.3129    4.7054    0.6707 H   0  0  0  0  0  0  0  0  0  0  0  0
  1  2  1  0
  1121  1  0
  2  3  1  0
  2122  1  0
  2123  1  0
  3  4  1  0
  3  5  1  0
  3124  1  0
  4  8  1  0
  5  7  1  0
  5  6  1  0
  5125  1  0
  6 17  1  0
  7  8  1  0
  7126  1  0
  7127  1  0
  8  9  1  0
  8128  1  0
  9 16  1  0
  9 10  1  0
 10 12  1  0
 10 11  2  0
 12 13  2  0
 13 15  1  0
 13 14  1  0
 14129  1  0
 14130  1  0
 15 16  2  0
 15131  1  0
 16132  1  0
 17 20  1  0
 17 19  2  0
 17 18  1  0
 20 21  1  0
 21 22  1  0
 21133  1  0
 21134  1  0
 22 24  1  0
 22 23  1  0
 22135  1  0
 23 27  1  0
 24 25  1  0
 24 26  1  0
 24136  1  0
 25 39  1  0
 26 27  1  0
 26137  1  0
 26138  1  0
 27 28  1  0
 27139  1  0
 28 38  1  0
 28 29  1  0
 29 30  2  0
 29140  1  0
 30 31  1  0
 31 32  1  0
 31 38  2  0
 32 33  2  0
 32 34  1  0
 34 35  2  0
 35 36  1  0
 35 37  1  0
 36141  1  0
 36142  1  0
 37 38  1  0
 37143  1  0
 39 41  2  0
 39 42  1  0
 39 40  1  0
 42 43  1  0
 43 44  1  0
 43144  1  0
 43145  1  0
 44 46  1  0
 44 45  1  0
 44146  1  0
 45 49  1  0
 46 48  1  0
 46 47  1  0
 46147  1  0
 47 59  1  0
 48 49  1  0
 48148  1  0
 48149  1  0
 49 50  1  0
 49150  1  0
 50 51  1  0
 50 58  1  0
 51 53  1  0
 51 52  2  0
 53 54  1  0
 53151  1  0
 54 55  2  0
 54 56  1  0
 56 57  1  0
 56 58  2  0
 57152  1  0
 57153  1  0
 57154  1  0
 58155  1  0
 59 61  2  0
 59 62  1  0
 59 60  1  0
 62 63  1  0
 63 64  1  0
 63156  1  0
 63157  1  0
 64 66  1  0
 64 65  1  0
 64158  1  0
 65 69  1  0
 66 68  1  0
 66 67  1  0
 66159  1  0
 67 80  1  0
 68 69  1  0
 68160  1  0
 68161  1  0
 69 70  1  0
 69162  1  0
 70 79  1  0
 70 71  1  0
 71 72  2  0
 71163  1  0
 72 73  1  0
 73 79  2  0
 73 74  1  0
 74 76  2  0
 74 75  1  0
 75164  1  0
 75165  1  0
 76 77  1  0
 77 78  2  0
 77166  1  0
 78 79  1  0
 80 83  1  0
 80 82  2  0
 80 81  1  0
 83 84  1  0
 84 85  1  0
 84167  1  0
 84168  1  0
 85 87  1  0
 85 86  1  0
 85169  1  0
 86 90  1  0
 87 88  1  0
 87 89  1  0
 87170  1  0
 88 99  1  0
 89 90  1  0
 89171  1  0
 89172  1  0
 90 91  1  0
 90173  1  0
 91 98  1  0
 91 92  1  0
 92 93  2  0
 92 94  1  0
 94 95  2  0
 95 97  1  0
 95 96  1  0
 96174  1  0
 96175  1  0
 97 98  2  0
 97176  1  0
 98177  1  0
 99100  2  0
 99101  1  0
 99102  1  0
102103  1  0
103104  1  0
103178  1  0
103179  1  0
104105  1  0
104106  1  0
104180  1  0
105109  1  0
106108  1  0
106107  1  0
106181  1  0
107182  1  0
108109  1  0
108183  1  0
108184  1  0
109110  1  0
109185  1  0
110111  1  0
110120  1  0
111112  2  0
111186  1  0
112113  1  0
113114  1  0
113120  2  0
114115  2  0
114116  1  0
116117  2  0
117118  1  0
117119  1  0
118187  1  0
118188  1  0
119120  1  0
119189  1  0
M  CHG  5  18  -1  40  -1  60  -1  81  -1 101  -1
M  END
$$$$
DNA (5'-D(*CP*GP*TP*AP*CP*G)-3')
     RDKit          3D

189203  0  0  0  0  0  0  0  0999 V2000
    4.2484    4.0558    2.4838 O   0  0  0  0  0  0  0  0  0  0  0  0
    3.2995    3.0539    2.2641 C   0  0  0  0  0  0  0  0  0  0  0  0
    3.3983    1.9790    3.3115 C   0  0  0  0  0  0  0  0  0  0  0  0
    4.6984    1.4055    3.2676 O   0  0  0  0  0  0  0  0  0  0  0  0
    2.5937    0.7827    2.8528 C   0  0  0  0  0  0  0  0  0  0  0  0
    2.9993    0.4662    1.6104 O   0  0  0  0  0  0  0  0  0  0  0  0
    3.1471   -0.2036    3.9048 C   0  0  0  0  0  0  0  0  0  0  0  0
    4.6177    0.1353    3.7673 C   0  0  0  0  0  0  0  0  0  0  0  0
    5.2833   -0.8708    2.9527 N   0  0  0  0  0  0  0  0  0  0  0  0
    5.3328   -2.1231    3.4879 C   0  0  0  0  0  0  0  0  0  0  0  0
    4.8188   -2.3630    4.6315 O   0  0  0  0  0  0  0  0  0  0  0  0
    5.9300   -3.1263    2.8068 N   0  0  0  0  0  0  0  0  0  0  0  0
    6.4935   -2.9470    1.5932 C   0  0  0  0  0  0  0  0  0  0  0  0
    7.1024   -4.0426    0.9500 N   0  0  0  0  0  0  0  0  0  0  0  0
    6.4398   -1.6677    1.0528 C   0  0  0  0  0  0  0  0  0  0  0  0
    5.8241   -0.6512    1.7657 C   0  0  0  0  0  0  0  0  0  0  0  0
    1.9830   -0.0397    0.4445 P   0  0  0  0  0  0  0  0  0  0  0  0
    2.4456    0.7762   -0.9935 O   0  0  0  0  0  0  0  0  0  0  0  0
    2.2681   -1.5212    0.1069 O   0  0  0  0  0  0  0  0  0  0  0  0
    0.3421    0.2006    0.6351 O   0  0  0  0  0  0  0  0  0  0  0  0
   -0.3176   -0.0624   -0.5851 C   0  0  0  0  0  0  0  0  0  0  0  0
   -1.7572   -0.4047   -0.4481 C   0  0  0  0  0  0  0  0  0  0  0  0
   -2.5544    0.5593    0.1324 O   0  0  0  0  0  0  0  0  0  0  0  0
   -2.4477   -0.7537   -1.7378 C   0  0  0  0  0  0  0  0  0  0  0  0
   -2.4790    0.2348   -2.6951 O   0  0  0  0  0  0  0  0  0  0  0  0
   -3.9032   -0.8122   -1.2045 C   0  0  0  0  0  0  0  0  0  0  0  0
   -3.8435    0.3705   -0.2598 C   0  0  0  0  0  0  0  0  0  0  0  0
   -4.8204    0.1838    0.7698 N   0  0  0  0  0  0  0  0  0  0  0  0
   -4.7496   -0.4112    1.9734 C   0  0  0  0  0  0  0  0  0  0  0  0
   -5.9278   -0.3558    2.6138 N   0  0  0  0  0  0  0  0  0  0  0  0
   -6.8012    0.2887    1.8210 C   0  0  0  0  0  0  0  0  0  0  0  0
   -8.1460    0.6472    1.9296 C   0  0  0  0  0  0  0  0  0  0  0  0
   -8.7380    0.3244    2.9879 O   0  0  0  0  0  0  0  0  0  0  0  0
   -8.7727    1.3186    0.9200 N   0  0  0  0  0  0  0  0  0  0  0  0
   -8.0445    1.6265   -0.1941 C   0  0  0  0  0  0  0  0  0  0  0  0
   -8.7521    2.3251   -1.2218 N   0  0  0  0  0  0  0  0  0  0  0  0
   -6.7499    1.2856   -0.3068 N   0  0  0  0  0  0  0  0  0  0  0  0
   -6.1108    0.6183    0.6873 C   0  0  0  0  0  0  0  0  0  0  0  0
   -2.3995   -0.5251   -4.2236 P   0  0  0  0  0  0  0  0  0  0  0  0
   -3.4011    0.2649   -5.3436 O   0  0  0  0  0  0  0  0  0  0  0  0
   -2.9452   -1.9496   -4.1265 O   0  0  0  0  0  0  0  0  0  0  0  0
   -0.8463   -0.6307   -4.7874 O   0  0  0  0  0  0  0  0  0  0  0  0
   -0.5161   -1.7113   -5.5515 C   0  0  0  0  0  0  0  0  0  0  0  0
    1.0160   -1.6736   -5.7595 C   0  0  0  0  0  0  0  0  0  0  0  0
    1.2892   -0.5013   -6.4013 O   0  0  0  0  0  0  0  0  0  0  0  0
    1.6246   -1.6309   -4.3703 C   0  0  0  0  0  0  0  0  0  0  0  0
    2.8439   -2.2588   -4.3364 O   0  0  0  0  0  0  0  0  0  0  0  0
    1.7040   -0.1334   -4.1344 C   0  0  0  0  0  0  0  0  0  0  0  0
    1.6101    0.4883   -5.4793 C   0  0  0  0  0  0  0  0  0  0  0  0
    0.6189    1.5352   -5.6142 N   0  0  0  0  0  0  0  0  0  0  0  0
    0.0527    1.7243   -6.8461 C   0  0  0  0  0  0  0  0  0  0  0  0
    0.4463    0.9690   -7.7754 O   0  0  0  0  0  0  0  0  0  0  0  0
   -0.8745    2.6576   -7.0763 N   0  0  0  0  0  0  0  0  0  0  0  0
   -1.2626    3.4443   -6.0344 C   0  0  0  0  0  0  0  0  0  0  0  0
   -2.1498    4.3199   -6.3044 O   0  0  0  0  0  0  0  0  0  0  0  0
   -0.7478    3.3182   -4.7820 C   0  0  0  0  0  0  0  0  0  0  0  0
   -1.1682    4.1516   -3.6518 C   0  0  0  0  0  0  0  0  0  0  0  0
    0.2209    2.3266   -4.5958 C   0  0  0  0  0  0  0  0  0  0  0  0
    3.0603   -3.4244   -3.1758 P   0  0  0  0  0  0  0  0  0  0  0  0
    4.4387   -2.9461   -2.2657 O   0  0  0  0  0  0  0  0  0  0  0  0
    3.4579   -4.7775   -3.7672 O   0  0  0  0  0  0  0  0  0  0  0  0
    1.8125   -3.5640   -2.0502 O   0  0  0  0  0  0  0  0  0  0  0  0
    1.5451   -4.8585   -1.7081 C   0  0  0  0  0  0  0  0  0  0  0  0
    1.3228   -5.1709   -0.2789 C   0  0  0  0  0  0  0  0  0  0  0  0
    1.0918   -6.5852   -0.2344 O   0  0  0  0  0  0  0  0  0  0  0  0
    0.0647   -4.7129    0.3641 C   0  0  0  0  0  0  0  0  0  0  0  0
   -0.1379   -3.3793    0.5350 O   0  0  0  0  0  0  0  0  0  0  0  0
   -0.9489   -5.4484   -0.4926 C   0  0  0  0  0  0  0  0  0  0  0  0
   -0.2318   -6.7788   -0.5975 C   0  0  0  0  0  0  0  0  0  0  0  0
   -0.3020   -7.4010   -1.8741 N   0  0  0  0  0  0  0  0  0  0  0  0
   -1.3547   -7.4986   -2.7163 C   0  0  0  0  0  0  0  0  0  0  0  0
   -0.9912   -8.1746   -3.8237 N   0  0  0  0  0  0  0  0  0  0  0  0
    0.3231   -8.5285   -3.7115 C   0  0  0  0  0  0  0  0  0  0  0  0
    1.1830   -9.2195   -4.5473 C   0  0  0  0  0  0  0  0  0  0  0  0
    0.7529   -9.7279   -5.8115 N   0  0  0  0  0  0  0  0  0  0  0  0
    2.4473   -9.3907   -4.1076 N   0  0  0  0  0  0  0  0  0  0  0  0
    2.8902   -8.9240   -2.9123 C   0  0  0  0  0  0  0  0  0  0  0  0
    2.0248   -8.2643   -2.1432 N   0  0  0  0  0  0  0  0  0  0  0  0
    0.7330   -8.0377   -2.4911 C   0  0  0  0  0  0  0  0  0  0  0  0
   -0.1469   -3.0974    2.2036 P   0  0  0  0  0  0  0  0  0  0  0  0
   -0.9774   -4.4298    2.8871 O   0  0  0  0  0  0  0  0  0  0  0  0
    1.2537   -3.1806    2.7492 O   0  0  0  0  0  0  0  0  0  0  0  0
   -0.9830   -1.7246    2.6756 O   0  0  0  0  0  0  0  0  0  0  0  0
   -0.6488   -1.2975    3.9349 C   0  0  0  0  0  0  0  0  0  0  0  0
   -1.6710   -0.4013    4.5051 C   0  0  0  0  0  0  0  0  0  0  0  0
   -1.3280    0.0098    5.8220 O   0  0  0  0  0  0  0  0  0  0  0  0
   -1.9541    0.8981    3.8888 C   0  0  0  0  0  0  0  0  0  0  0  0
   -0.9592    1.8725    3.9851 O   0  0  0  0  0  0  0  0  0  0  0  0
   -2.9932    1.4095    4.9735 C   0  0  0  0  0  0  0  0  0  0  0  0
   -2.4017    0.7903    6.1974 C   0  0  0  0  0  0  0  0  0  0  0  0
   -3.3813    0.0318    6.9604 N   0  0  0  0  0  0  0  0  0  0  0  0
   -4.5396    0.6642    7.2350 C   0  0  0  0  0  0  0  0  0  0  0  0
   -4.7384    1.8603    6.8381 O   0  0  0  0  0  0  0  0  0  0  0  0
   -5.4862   -0.0004    7.9411 N   0  0  0  0  0  0  0  0  0  0  0  0
   -5.2865   -1.2810    8.3717 C   0  0  0  0  0  0  0  0  0  0  0  0
   -6.3326   -1.8925    9.0971 N   0  0  0  0  0  0  0  0  0  0  0  0
   -4.0897   -1.9110    8.0798 C   0  0  0  0  0  0  0  0  0  0  0  0
   -3.1230   -1.2253    7.3554 C   0  0  0  0  0  0  0  0  0  0  0  0
   -1.4069    3.2304    3.1228 P   0  0  0  0  0  0  0  0  0  0  0  0
   -1.2191    4.4456    4.0470 O   0  0  0  0  0  0  0  0  0  0  0  0
   -3.0403    3.1482    2.6314 O   0  0  0  0  0  0  0  0  0  0  0  0
   -0.5177    3.5327    1.7297 O   0  0  0  0  0  0  0  0  0  0  0  0
   -0.2975    4.9014    1.6391 C   0  0  0  0  0  0  0  0  0  0  0  0
   -0.0686    5.4396    0.2758 C   0  0  0  0  0  0  0  0  0  0  0  0
    0.1653    6.8120    0.2510 O   0  0  0  0  0  0  0  0  0  0  0  0
    1.0111    4.7890   -0.5138 C   0  0  0  0  0  0  0  0  0  0  0  0
    1.2221    3.4716   -0.1997 O   0  0  0  0  0  0  0  0  0  0  0  0
    2.1823    5.7011   -0.2123 C   0  0  0  0  0  0  0  0  0  0  0  0
    1.4883    7.0240   -0.0089 C   0  0  0  0  0  0  0  0  0  0  0  0
    1.7426    7.8249   -1.1912 N   0  0  0  0  0  0  0  0  0  0  0  0
    0.8622    8.3911   -2.0367 C   0  0  0  0  0  0  0  0  0  0  0  0
    1.5423    9.0490   -3.0172 N   0  0  0  0  0  0  0  0  0  0  0  0
    2.8629    8.8903   -2.7786 C   0  0  0  0  0  0  0  0  0  0  0  0
    3.9755    9.3507   -3.4662 C   0  0  0  0  0  0  0  0  0  0  0  0
    3.8269   10.0459   -4.5038 O   0  0  0  0  0  0  0  0  0  0  0  0
    5.2085    9.0357   -2.9958 N   0  0  0  0  0  0  0  0  0  0  0  0
    5.3345    8.2842   -1.8716 C   0  0  0  0  0  0  0  0  0  0  0  0
    6.6561    7.9933   -1.4359 N   0  0  0  0  0  0  0  0  0  0  0  0
    4.2400    7.8531   -1.2273 N   0  0  0  0  0  0  0  0  0  0  0  0
    2.9821    8.1158   -1.6225 C   0  0  0  0  0  0  0  0  0  0  0  0
    3.8428    4.8356    2.9439 H   0  0  0  0  0  0  0  0  0  0  0  0
    2.2691    3.4547    2.3265 H   0  0  0  0  0  0  0  0  0  0  0  0
    3.3949    2.5667    1.2756 H   0  0  0  0  0  0  0  0  0  0  0  0
    3.1298    2.2975    4.3304 H   0  0  0  0  0  0  0  0  0  0  0  0
    1.5367    0.9594    3.0238 H   0  0  0  0  0  0  0  0  0  0  0  0
    2.7659    0.1109    4.8719 H   0  0  0  0  0  0  0  0  0  0  0  0
    2.9006   -1.2334    3.6976 H   0  0  0  0  0  0  0  0  0  0  0  0
    5.0907    0.0572    4.7789 H   0  0  0  0  0  0  0  0  0  0  0  0
    8.0383   -4.0176    0.5018 H   0  0  0  0  0  0  0  0  0  0  0  0
    6.5885   -4.9402    0.9148 H   0  0  0  0  0  0  0  0  0  0  0  0
    6.8912   -1.5254    0.0809 H   0  0  0  0  0  0  0  0  0  0  0  0
    5.7868    0.3238    1.3430 H   0  0  0  0  0  0  0  0  0  0  0  0
   -0.2412    0.8724   -1.1942 H   0  0  0  0  0  0  0  0  0  0  0  0
    0.2290   -0.9123   -1.0584 H   0  0  0  0  0  0  0  0  0  0  0  0
   -1.8926   -1.3187    0.1927 H   0  0  0  0  0  0  0  0  0  0  0  0
   -2.1861   -1.7543   -2.1497 H   0  0  0  0  0  0  0  0  0  0  0  0
   -3.9929   -1.7656   -0.6814 H   0  0  0  0  0  0  0  0  0  0  0  0
   -4.6368   -0.5957   -1.9791 H   0  0  0  0  0  0  0  0  0  0  0  0
   -4.1454    1.2894   -0.8442 H   0  0  0  0  0  0  0  0  0  0  0  0
   -3.8739   -0.8732    2.3810 H   0  0  0  0  0  0  0  0  0  0  0  0
   -8.6201    3.3237   -1.4455 H   0  0  0  0  0  0  0  0  0  0  0  0
   -9.4501    1.7532   -1.7725 H   0  0  0  0  0  0  0  0  0  0  0  0
   -6.2712    1.5653   -1.1985 H   0  0  0  0  0  0  0  0  0  0  0  0
   -0.8228   -2.6986   -5.1591 H   0  0  0  0  0  0  0  0  0  0  0  0
   -1.0075   -1.6143   -6.5630 H   0  0  0  0  0  0  0  0  0  0  0  0
    1.3759   -2.5441   -6.3013 H   0  0  0  0  0  0  0  0  0  0  0  0
    0.9910   -2.0463   -3.5877 H   0  0  0  0  0  0  0  0  0  0  0  0
    0.8673    0.2159   -3.5050 H   0  0  0  0  0  0  0  0  0  0  0  0
    2.6748    0.0904   -3.6347 H   0  0  0  0  0  0  0  0  0  0  0  0
    2.6272    0.9015   -5.7625 H   0  0  0  0  0  0  0  0  0  0  0  0
   -1.3073    2.8055   -8.0223 H   0  0  0  0  0  0  0  0  0  0  0  0
   -2.2996    4.1522   -3.6215 H   0  0  0  0  0  0  0  0  0  0  0  0
   -0.8846    5.2006   -3.6876 H   0  0  0  0  0  0  0  0  0  0  0  0
   -0.8961    3.6587   -2.6738 H   0  0  0  0  0  0  0  0  0  0  0  0
    0.6387    2.2169   -3.6217 H   0  0  0  0  0  0  0  0  0  0  0  0
    2.3770   -5.4791   -2.1568 H   0  0  0  0  0  0  0  0  0  0  0  0
    0.6533   -5.1628   -2.3395 H   0  0  0  0  0  0  0  0  0  0  0  0
    2.2280   -5.0577    0.3550 H   0  0  0  0  0  0  0  0  0  0  0  0
    0.0296   -5.2452    1.3643 H   0  0  0  0  0  0  0  0  0  0  0  0
   -1.9243   -5.5316    0.0729 H   0  0  0  0  0  0  0  0  0  0  0  0
   -1.1613   -4.9654   -1.4463 H   0  0  0  0  0  0  0  0  0  0  0  0
   -0.7510   -7.4522    0.1378 H   0  0  0  0  0  0  0  0  0  0  0  0
   -2.3549   -7.1103   -2.5670 H   0  0  0  0  0  0  0  0  0  0  0  0
    0.0940   -9.2212   -6.4393 H   0  0  0  0  0  0  0  0  0  0  0  0
    1.1196  -10.6544   -6.1188 H   0  0  0  0  0  0  0  0  0  0  0  0
    3.9218   -9.1113   -2.6522 H   0  0  0  0  0  0  0  0  0  0  0  0
   -0.6370   -2.2291    4.5893 H   0  0  0  0  0  0  0  0  0  0  0  0
    0.3661   -0.8626    4.0127 H   0  0  0  0  0  0  0  0  0  0  0  0
   -2.6575   -0.9318    4.6712 H   0  0  0  0  0  0  0  0  0  0  0  0
   -2.4457    0.9676    2.9282 H   0  0  0  0  0  0  0  0  0  0  0  0
   -3.9345    0.9388    4.6238 H   0  0  0  0  0  0  0  0  0  0  0  0
   -3.0154    2.4938    4.9591 H   0  0  0  0  0  0  0  0  0  0  0  0
   -2.0791    1.6127    6.8782 H   0  0  0  0  0  0  0  0  0  0  0  0
   -6.6821   -2.8594    8.8364 H   0  0  0  0  0  0  0  0  0  0  0  0
   -6.8020   -1.4138    9.9221 H   0  0  0  0  0  0  0  0  0  0  0  0
   -3.9436   -2.9245    8.4282 H   0  0  0  0  0  0  0  0  0  0  0  0
   -2.1724   -1.6907    7.1100 H   0  0  0  0  0  0  0  0  0  0  0  0
   -1.1506    5.4335    2.1483 H   0  0  0  0  0  0  0  0  0  0  0  0
    0.5872    5.1364    2.2829 H   0  0  0  0  0  0  0  0  0  0  0  0
   -1.0271    5.3107   -0.3104 H   0  0  0  0  0  0  0  0  0  0  0  0
    0.7826    4.9348   -1.6064 H   0  0  0  0  0  0  0  0  0  0  0  0
    0.3377    3.0113   -0.3562 H   0  0  0  0  0  0  0  0  0  0  0  0
    2.8281    5.6652   -1.1130 H   0  0  0  0  0  0  0  0  0  0  0  0
    2.7633    5.3888    0.6513 H   0  0  0  0  0  0  0  0  0  0  0  0
    1.9210    7.5536    0.8933 H   0  0  0  0  0  0  0  0  0  0  0  0
   -0.2219    8.3305   -1.9489 H   0  0  0  0  0  0  0  0  0  0  0  0
    7.4563    7.8192   -2.0837 H   0  0  0  0  0  0  0  0  0  0  0  0
    6.9123    7.9369   -0.4022 H   0  0  0  0  0  0  0  0  0  0  0  0
    4.3994    7.2724   -0.3530 H   0  0  0  0  0  0  0  0  0  0  0  0
  1  2  1  0
  1121  1  0
  2  3  1  0
  2122  1  0
  2123  1  0
  3  4  1  0
  3  5  1  0
  3124  1  0
  4  8  1  0
  5  7  1  0
  5  6  1  0
  5125  1  0
  6 17  1  0
  7  8  1  0
  7126  1  0
  7127  1  0
  8  9  1  0
  8128  1  0
  9 16  1  0
  9 10  1  0
 10 12  1  0
 10 11  2  0
 12 13  2  0
 13 15  1  0
 13 14  1  0
 14129  1  0
 14130  1  0
 15 16  2  0
 15131  1  0
 16132  1  0
 17 20  1  0
 17 19  2  0
 17 18  1  0
 20 21  1  0
 21 22  1  0
 21133  1  0
 21134  1  0
 22 24  1  0
 22 23  1  0
 22135  1  0
 23 27  1  0
 24 25  1  0
 24 26  1  0
 24136  1  0
 25 39  1  0
 26 27  1  0
 26137  1  0
 26138  1  0
 27 28  1  0
 27139  1  0
 28 38  1  0
 28 29  1  0
 29 30  2  0
 29140  1  0
 30 31  1  0
 31 32  1  0
 31 38  2  0
 32 33  2  0
 32 34  1  0
 34 35  2  0
 35 36  1  0
 35 37  1  0
 36141  1  0
 36142  1  0
 37 38  1  0
 37143  1  0
 39 41  2  0
 39 42  1  0
 39 40  1  0
 42 43  1  0
 43 44  1  0
 43144  1  0
 43145  1  0
 44 46  1  0
 44 45  1  0
 44146  1  0
 45 49  1  0
 46 48  1  0
 46 47  1  0
 46147  1  0
 47 59  1  0
 48 49  1  0
 48148  1  0
 48149  1  0
 49 50  1  0
 49150  1  0
 50 51  1  0
 50 58  1  0
 51 53  1  0
 51 52  2  0
 53 54  1  0
 53151  1  0
 54 55  2  0
 54 56  1  0
 56 57  1  0
 56 58  2  0
 57152  1  0
 57153  1  0
 57154  1  0
 58155  1  0
 59 61  2  0
 59 62  1  0
 59 60  1  0
 62 63  1  0
 63 64  1  0
 63156  1  0
 63157  1  0
 64 66  1  0
 64 65  1  0
 64158  1  0
 65 69  1  0
 66 68  1  0
 66 67  1  0
 66159  1  0
 67 80  1  0
 68 69  1  0
 68160  1  0
 68161  1  0
 69 70  1  0
 69162  1  0
 70 79  1  0
 70 71  1  0
 71 72  2  0
 71163  1  0
 72 73  1  0
 73 79  2  0
 73 74  1  0
 74 76  2  0
 74 75  1  0
 75164  1  0
 75165  1  0
 76 77  1  0
 77 78  2  0
 77166  1  0
 78 79  1  0
 80 83  1  0
 80 82  2  0
 80 81  1  0
 83 84  1  0
 84 85  1  0
 84167  1  0
 84168  1  0
 85 87  1  0
 85 86  1  0
 85169  1  0
 86 90  1  0
 87 88  1  0
 87 89  1  0
 87170  1  0
 88 99  1  0
 89 90  1  0
 89171  1  0
 89172  1  0
 90 91  1  0
 90173  1  0
 91 98  1  0
 91 92  1  0
 92 93  2  0
 92 94  1  0
 94 95  2  0
 95 97  1  0
 95 96  1  0
 96174  1  0
 96175  1  0
 97 98  2  0
 97176  1  0
 98177  1  0
 99100  2  0
 99101  1  0
 99102  1  0
102103  1  0
103104  1  0
103178  1  0
103179  1  0
104105  1  0
104106  1  0
104180  1  0
105109  1  0
106108  1  0
106107  1  0
106181  1  0
107182  1  0
108109  1  0
108183  1  0
108184  1  0
109110  1  0
109185  1  0
110111  1  0
110120  1  0
111112  2  0
111186  1  0
112113  1  0
113114  1  0
113120  2  0
114115  2  0
114116  1  0
116117  2  0
117118  1  0
117119  1  0
118187  1  0
118188  1  0
119120  1  0
119189  1  0
M  CHG  5  18  -1  40  -1  60  -1  81  -1 101  -1
M  END
$$$$
DNA (5'-D(*CP*GP*TP*AP*CP*G)-3')
     RDKit          3D

189203  0  0  0  0  0  0  0  0999 V2000
    2.8524    7.8921    2.3960 O   0  0  0  0  0  0  0  0  0  0  0  0
    2.7762    6.5122    2.1607 C   0  0  0  0  0  0  0  0  0  0  0  0
    3.9936    5.8233    2.7553 C   0  0  0  0  0  0  0  0  0  0  0  0
    5.1080    6.3573    2.1419 O   0  0  0  0  0  0  0  0  0  0  0  0
    3.9802    4.3543    2.4752 C   0  0  0  0  0  0  0  0  0  0  0  0
    2.7250    3.8484    2.1330 O   0  0  0  0  0  0  0  0  0  0  0  0
    4.9697    4.2456    1.3361 C   0  0  0  0  0  0  0  0  0  0  0  0
    5.2411    5.6748    0.9477 C   0  0  0  0  0  0  0  0  0  0  0  0
    6.6074    5.8768    0.4950 N   0  0  0  0  0  0  0  0  0  0  0  0
    7.1697    7.0856    0.6395 C   0  0  0  0  0  0  0  0  0  0  0  0
    6.5501    8.0585    1.1577 O   0  0  0  0  0  0  0  0  0  0  0  0
    8.4299    7.2800    0.2241 N   0  0  0  0  0  0  0  0  0  0  0  0
    9.1154    6.2675   -0.3311 C   0  0  0  0  0  0  0  0  0  0  0  0
   10.4479    6.5385   -0.7530 N   0  0  0  0  0  0  0  0  0  0  0  0
    8.5455    4.9985   -0.4908 C   0  0  0  0  0  0  0  0  0  0  0  0
    7.2511    4.8459   -0.0500 C   0  0  0  0  0  0  0  0  0  0  0  0
    2.2696    2.5984    3.1815 P   0  0  0  0  0  0  0  0  0  0  0  0
    1.3334    3.1751    4.4642 O   0  0  0  0  0  0  0  0  0  0  0  0
    3.5600    2.0785    3.8164 O   0  0  0  0  0  0  0  0  0  0  0  0
    1.4700    1.3472    2.4301 O   0  0  0  0  0  0  0  0  0  0  0  0
    0.2861    0.9507    3.0327 C   0  0  0  0  0  0  0  0  0  0  0  0
   -0.1289   -0.4352    2.5702 C   0  0  0  0  0  0  0  0  0  0  0  0
    0.8713   -1.3722    2.9210 O   0  0  0  0  0  0  0  0  0  0  0  0
   -1.2782   -0.9818    3.3844 C   0  0  0  0  0  0  0  0  0  0  0  0
   -2.3404   -0.1169    3.3526 O   0  0  0  0  0  0  0  0  0  0  0  0
   -0.6183   -1.1532    4.7273 C   0  0  0  0  0  0  0  0  0  0  0  0
    0.8171   -1.4466    4.3104 C   0  0  0  0  0  0  0  0  0  0  0  0
    1.2221   -2.7805    4.7556 N   0  0  0  0  0  0  0  0  0  0  0  0
    1.4300   -3.8717    3.9899 C   0  0  0  0  0  0  0  0  0  0  0  0
    1.7896   -4.9245    4.7549 N   0  0  0  0  0  0  0  0  0  0  0  0
    1.8168   -4.5063    6.0538 C   0  0  0  0  0  0  0  0  0  0  0  0
    2.1096   -5.1350    7.2491 C   0  0  0  0  0  0  0  0  0  0  0  0
    2.4337   -6.3423    7.2884 O   0  0  0  0  0  0  0  0  0  0  0  0
    2.0240   -4.3655    8.3619 N   0  0  0  0  0  0  0  0  0  0  0  0
    1.6734   -3.0679    8.2906 C   0  0  0  0  0  0  0  0  0  0  0  0
    1.5895   -2.2604    9.4834 N   0  0  0  0  0  0  0  0  0  0  0  0
    1.3846   -2.4356    7.1434 N   0  0  0  0  0  0  0  0  0  0  0  0
    1.4570   -3.1631    6.0112 C   0  0  0  0  0  0  0  0  0  0  0  0
   -3.6947   -0.8222    2.5905 P   0  0  0  0  0  0  0  0  0  0  0  0
   -4.2977   -1.9883    3.6565 O   0  0  0  0  0  0  0  0  0  0  0  0
   -4.7666    0.2203    2.3894 O   0  0  0  0  0  0  0  0  0  0  0  0
   -3.2425   -1.5868    1.1520 O   0  0  0  0  0  0  0  0  0  0  0  0
   -4.2998   -1.6398    0.2380 C   0  0  0  0  0  0  0  0  0  0  0  0
   -3.7652   -2.1320   -1.0719 C   0  0  0  0  0  0  0  0  0  0  0  0
   -4.7629   -2.1896   -2.0800 O   0  0  0  0  0  0  0  0  0  0  0  0
   -3.1217   -3.4677   -1.0479 C   0  0  0  0  0  0  0  0  0  0  0  0
   -3.3679   -4.2698    0.0340 O   0  0  0  0  0  0  0  0  0  0  0  0
   -3.6871   -4.1193   -2.3342 C   0  0  0  0  0  0  0  0  0  0  0  0
   -4.0538   -2.8162   -3.0681 C   0  0  0  0  0  0  0  0  0  0  0  0
   -4.7390   -3.1302   -4.2727 N   0  0  0  0  0  0  0  0  0  0  0  0
   -6.0432   -2.9265   -4.5160 C   0  0  0  0  0  0  0  0  0  0  0  0
   -6.7358   -2.4145   -3.6071 O   0  0  0  0  0  0  0  0  0  0  0  0
   -6.5777   -3.2657   -5.7022 N   0  0  0  0  0  0  0  0  0  0  0  0
   -5.8769   -3.8171   -6.7059 C   0  0  0  0  0  0  0  0  0  0  0  0
   -6.3584   -4.1387   -7.8165 O   0  0  0  0  0  0  0  0  0  0  0  0
   -4.5333   -4.0354   -6.4776 C   0  0  0  0  0  0  0  0  0  0  0  0
   -3.6325   -4.6389   -7.5128 C   0  0  0  0  0  0  0  0  0  0  0  0
   -3.9972   -3.6901   -5.2763 C   0  0  0  0  0  0  0  0  0  0  0  0
   -1.9078   -5.0636    0.4525 P   0  0  0  0  0  0  0  0  0  0  0  0
   -2.3081   -6.5142    1.2224 O   0  0  0  0  0  0  0  0  0  0  0  0
   -1.1367   -4.1337    1.3437 O   0  0  0  0  0  0  0  0  0  0  0  0
   -1.0006   -5.3797   -0.9392 O   0  0  0  0  0  0  0  0  0  0  0  0
    0.2216   -4.7178   -0.9678 C   0  0  0  0  0  0  0  0  0  0  0  0
    0.6579   -4.5588   -2.4066 C   0  0  0  0  0  0  0  0  0  0  0  0
    0.8385   -5.7975   -2.9618 O   0  0  0  0  0  0  0  0  0  0  0  0
    1.9565   -3.8317   -2.5801 C   0  0  0  0  0  0  0  0  0  0  0  0
    1.8050   -3.0266   -3.7244 O   0  0  0  0  0  0  0  0  0  0  0  0
    2.9340   -4.9390   -2.9206 C   0  0  0  0  0  0  0  0  0  0  0  0
    2.1312   -6.1641   -2.6359 C   0  0  0  0  0  0  0  0  0  0  0  0
    2.6006   -7.2855   -3.4642 N   0  0  0  0  0  0  0  0  0  0  0  0
    3.8490   -7.5316   -3.9006 C   0  0  0  0  0  0  0  0  0  0  0  0
    3.8043   -8.6788   -4.6308 N   0  0  0  0  0  0  0  0  0  0  0  0
    2.5358   -9.1191   -4.6332 C   0  0  0  0  0  0  0  0  0  0  0  0
    1.9393  -10.2285   -5.2172 C   0  0  0  0  0  0  0  0  0  0  0  0
    2.7061  -11.1655   -5.9947 N   0  0  0  0  0  0  0  0  0  0  0  0
    0.5971  -10.4138   -5.0393 N   0  0  0  0  0  0  0  0  0  0  0  0
   -0.1449   -9.5618   -4.3242 C   0  0  0  0  0  0  0  0  0  0  0  0
    0.4577   -8.4755   -3.7566 N   0  0  0  0  0  0  0  0  0  0  0  0
    1.7771   -8.2541   -3.9064 C   0  0  0  0  0  0  0  0  0  0  0  0
    1.9625   -1.3931   -3.3607 P   0  0  0  0  0  0  0  0  0  0  0  0
    3.4484   -0.8681   -3.9679 O   0  0  0  0  0  0  0  0  0  0  0  0
    1.9719   -1.1570   -1.8623 O   0  0  0  0  0  0  0  0  0  0  0  0
    0.7017   -0.4909   -4.0859 O   0  0  0  0  0  0  0  0  0  0  0  0
    0.6716    0.7784   -3.5622 C   0  0  0  0  0  0  0  0  0  0  0  0
   -0.4474    1.6195   -4.1464 C   0  0  0  0  0  0  0  0  0  0  0  0
   -1.6896    1.0707   -3.9108 O   0  0  0  0  0  0  0  0  0  0  0  0
   -0.5461    2.9455   -3.3887 C   0  0  0  0  0  0  0  0  0  0  0  0
   -0.4669    2.7481   -2.0248 O   0  0  0  0  0  0  0  0  0  0  0  0
   -1.9811    3.3245   -3.7100 C   0  0  0  0  0  0  0  0  0  0  0  0
   -2.5816    2.0567   -4.2475 C   0  0  0  0  0  0  0  0  0  0  0  0
   -3.8799    1.8601   -3.6230 N   0  0  0  0  0  0  0  0  0  0  0  0
   -5.0200    1.7087   -4.3107 C   0  0  0  0  0  0  0  0  0  0  0  0
   -4.9930    1.7351   -5.5792 O   0  0  0  0  0  0  0  0  0  0  0  0
   -6.2238    1.5258   -3.7014 N   0  0  0  0  0  0  0  0  0  0  0  0
   -6.2722    1.4954   -2.3571 C   0  0  0  0  0  0  0  0  0  0  0  0
   -7.4920    1.3084   -1.6314 N   0  0  0  0  0  0  0  0  0  0  0  0
   -5.1316    1.6455   -1.5940 C   0  0  0  0  0  0  0  0  0  0  0  0
   -3.9477    1.8270   -2.2812 C   0  0  0  0  0  0  0  0  0  0  0  0
    0.5853    3.8139   -1.2532 P   0  0  0  0  0  0  0  0  0  0  0  0
    0.8541    5.0647   -2.0843 O   0  0  0  0  0  0  0  0  0  0  0  0
    2.0618    3.0576   -0.9674 O   0  0  0  0  0  0  0  0  0  0  0  0
   -0.0902    4.2364    0.2581 O   0  0  0  0  0  0  0  0  0  0  0  0
   -1.1911    5.0856    0.0399 C   0  0  0  0  0  0  0  0  0  0  0  0
   -1.9529    5.2273    1.3193 C   0  0  0  0  0  0  0  0  0  0  0  0
   -1.2020    5.7654    2.3575 O   0  0  0  0  0  0  0  0  0  0  0  0
   -3.1123    6.2098    1.1588 C   0  0  0  0  0  0  0  0  0  0  0  0
   -4.2502    5.5532    0.7388 O   0  0  0  0  0  0  0  0  0  0  0  0
   -3.2528    6.7479    2.5862 C   0  0  0  0  0  0  0  0  0  0  0  0
   -2.1939    5.9926    3.3166 C   0  0  0  0  0  0  0  0  0  0  0  0
   -1.6816    6.6814    4.4777 N   0  0  0  0  0  0  0  0  0  0  0  0
   -1.6098    8.0169    4.7153 C   0  0  0  0  0  0  0  0  0  0  0  0
   -1.0457    8.1833    5.9468 N   0  0  0  0  0  0  0  0  0  0  0  0
   -0.7702    6.9771    6.4703 C   0  0  0  0  0  0  0  0  0  0  0  0
   -0.2049    6.5691    7.6622 C   0  0  0  0  0  0  0  0  0  0  0  0
    0.1519    7.4529    8.4885 O   0  0  0  0  0  0  0  0  0  0  0  0
   -0.0535    5.2453    7.9020 N   0  0  0  0  0  0  0  0  0  0  0  0
   -0.4524    4.3688    6.9861 C   0  0  0  0  0  0  0  0  0  0  0  0
   -0.2885    2.9699    7.2478 N   0  0  0  0  0  0  0  0  0  0  0  0
   -1.0049    4.7430    5.8197 N   0  0  0  0  0  0  0  0  0  0  0  0
   -1.1730    6.0472    5.5409 C   0  0  0  0  0  0  0  0  0  0  0  0
    1.9856    8.1951    2.7864 H   0  0  0  0  0  0  0  0  0  0  0  0
    1.8355    6.0673    2.5826 H   0  0  0  0  0  0  0  0  0  0  0  0
    2.7406    6.3138    1.0858 H   0  0  0  0  0  0  0  0  0  0  0  0
    4.0583    6.0368    3.8494 H   0  0  0  0  0  0  0  0  0  0  0  0
    4.3354    3.7998    3.3737 H   0  0  0  0  0  0  0  0  0  0  0  0
    4.4439    3.6978    0.5185 H   0  0  0  0  0  0  0  0  0  0  0  0
    5.8609    3.7180    1.7186 H   0  0  0  0  0  0  0  0  0  0  0  0
    4.5227    5.9913    0.1639 H   0  0  0  0  0  0  0  0  0  0  0  0
   10.8967    6.0695   -1.5487 H   0  0  0  0  0  0  0  0  0  0  0  0
   11.0152    7.2523   -0.2380 H   0  0  0  0  0  0  0  0  0  0  0  0
    9.1059    4.2028   -0.9365 H   0  0  0  0  0  0  0  0  0  0  0  0
    6.7783    3.8982   -0.1508 H   0  0  0  0  0  0  0  0  0  0  0  0
   -0.5175    1.6892    2.8535 H   0  0  0  0  0  0  0  0  0  0  0  0
    0.4791    0.9245    4.1115 H   0  0  0  0  0  0  0  0  0  0  0  0
   -0.2964   -0.4756    1.4816 H   0  0  0  0  0  0  0  0  0  0  0  0
   -1.5282   -1.9689    2.9213 H   0  0  0  0  0  0  0  0  0  0  0  0
   -1.0186   -2.0003    5.3244 H   0  0  0  0  0  0  0  0  0  0  0  0
   -0.7045   -0.2152    5.2940 H   0  0  0  0  0  0  0  0  0  0  0  0
    1.4758   -0.7196    4.8153 H   0  0  0  0  0  0  0  0  0  0  0  0
    1.3293   -3.9270    2.9036 H   0  0  0  0  0  0  0  0  0  0  0  0
    2.1969   -1.4194    9.6190 H   0  0  0  0  0  0  0  0  0  0  0  0
    0.8878   -2.5485   10.2237 H   0  0  0  0  0  0  0  0  0  0  0  0
    1.1112   -1.4137    7.1334 H   0  0  0  0  0  0  0  0  0  0  0  0
   -4.9762   -2.4533    0.6370 H   0  0  0  0  0  0  0  0  0  0  0  0
   -4.8900   -0.7286    0.1674 H   0  0  0  0  0  0  0  0  0  0  0  0
   -3.0084   -1.4111   -1.5012 H   0  0  0  0  0  0  0  0  0  0  0  0
   -2.0246   -3.4332   -1.2619 H   0  0  0  0  0  0  0  0  0  0  0  0
   -4.5706   -4.7208   -2.1050 H   0  0  0  0  0  0  0  0  0  0  0  0
   -2.9184   -4.6009   -2.9345 H   0  0  0  0  0  0  0  0  0  0  0  0
   -3.0946   -2.2851   -3.2489 H   0  0  0  0  0  0  0  0  0  0  0  0
   -7.6065   -3.1078   -5.9041 H   0  0  0  0  0  0  0  0  0  0  0  0
   -2.6761   -4.0406   -7.4335 H   0  0  0  0  0  0  0  0  0  0  0  0
   -4.0082   -4.4715   -8.5231 H   0  0  0  0  0  0  0  0  0  0  0  0
   -3.3434   -5.6643   -7.2585 H   0  0  0  0  0  0  0  0  0  0  0  0
   -2.9253   -3.8722   -5.1108 H   0  0  0  0  0  0  0  0  0  0  0  0
    0.9409   -5.3976   -0.4485 H   0  0  0  0  0  0  0  0  0  0  0  0
    0.1501   -3.7386   -0.4828 H   0  0  0  0  0  0  0  0  0  0  0  0
   -0.1641   -4.0029   -2.9605 H   0  0  0  0  0  0  0  0  0  0  0  0
    2.2191   -3.2446   -1.6989 H   0  0  0  0  0  0  0  0  0  0  0  0
    3.7572   -4.8830   -2.1638 H   0  0  0  0  0  0  0  0  0  0  0  0
    3.3052   -4.8545   -3.9634 H   0  0  0  0  0  0  0  0  0  0  0  0
    2.2663   -6.4585   -1.5771 H   0  0  0  0  0  0  0  0  0  0  0  0
    4.6986   -6.8971   -3.6837 H   0  0  0  0  0  0  0  0  0  0  0  0
    2.7758  -11.0507   -7.0325 H   0  0  0  0  0  0  0  0  0  0  0  0
    3.1951  -11.9706   -5.4988 H   0  0  0  0  0  0  0  0  0  0  0  0
   -1.2083   -9.6646   -4.1563 H   0  0  0  0  0  0  0  0  0  0  0  0
    0.5853    0.7956   -2.4586 H   0  0  0  0  0  0  0  0  0  0  0  0
    1.6241    1.2761   -3.8043 H   0  0  0  0  0  0  0  0  0  0  0  0
   -0.3160    1.8528   -5.2128 H   0  0  0  0  0  0  0  0  0  0  0  0
    0.1279    3.7162   -3.7856 H   0  0  0  0  0  0  0  0  0  0  0  0
   -2.0066    4.1496   -4.4684 H   0  0  0  0  0  0  0  0  0  0  0  0
   -2.5288    3.6048   -2.7894 H   0  0  0  0  0  0  0  0  0  0  0  0
   -2.7009    2.1947   -5.3415 H   0  0  0  0  0  0  0  0  0  0  0  0
   -8.3903    1.6825   -1.9876 H   0  0  0  0  0  0  0  0  0  0  0  0
   -7.4714    0.7753   -0.7104 H   0  0  0  0  0  0  0  0  0  0  0  0
   -5.1645    1.6230   -0.5222 H   0  0  0  0  0  0  0  0  0  0  0  0
   -3.0601    1.9457   -1.6734 H   0  0  0  0  0  0  0  0  0  0  0  0
   -0.8355    6.1046   -0.2540 H   0  0  0  0  0  0  0  0  0  0  0  0
   -1.7827    4.6335   -0.7631 H   0  0  0  0  0  0  0  0  0  0  0  0
   -2.3440    4.2342    1.6586 H   0  0  0  0  0  0  0  0  0  0  0  0
   -2.8090    7.0066    0.4475 H   0  0  0  0  0  0  0  0  0  0  0  0
   -4.7285    6.1017    0.0536 H   0  0  0  0  0  0  0  0  0  0  0  0
   -3.1187    7.8486    2.5751 H   0  0  0  0  0  0  0  0  0  0  0  0
   -4.2798    6.4803    2.9159 H   0  0  0  0  0  0  0  0  0  0  0  0
   -2.6580    5.0045    3.6097 H   0  0  0  0  0  0  0  0  0  0  0  0
   -1.9473    8.7861    4.0314 H   0  0  0  0  0  0  0  0  0  0  0  0
   -1.1709    2.3998    7.2175 H   0  0  0  0  0  0  0  0  0  0  0  0
    0.6220    2.5278    7.4535 H   0  0  0  0  0  0  0  0  0  0  0  0
   -1.2918    3.9798    5.1563 H   0  0  0  0  0  0  0  0  0  0  0  0
  1  2  1  0
  1121  1  0
  2  3  1  0
  2122  1  0
  2123  1  0
  3  4  1  0
  3  5  1  0
  3124  1  0
  4  8  1  0
  5  7  1  0
  5  6  1  0
  5125  1  0
  6 17  1  0
  7  8  1  0
  7126  1  0
  7127  1  0
  8  9  1  0
  8128  1  0
  9 16  1  0
  9 10  1  0
 10 12  1  0
 10 11  2  0
 12 13  2  0
 13 15  1  0
 13 14  1  0
 14129  1  0
 14130  1  0
 15 16  2  0
 15131  1  0
 16132  1  0
 17 20  1  0
 17 19  2  0
 17 18  1  0
 20 21  1  0
 21 22  1  0
 21133  1  0
 21134  1  0
 22 24  1  0
 22 23  1  0
 22135  1  0
 23 27  1  0
 24 25  1  0
 24 26  1  0
 24136  1  0
 25 39  1  0
 26 27  1  0
 26137  1  0
 26138  1  0
 27 28  1  0
 27139  1  0
 28 38  1  0
 28 29  1  0
 29 30  2  0
 29140  1  0
 30 31  1  0
 31 32  1  0
 31 38  2  0
 32 33  2  0
 32 34  1  0
 34 35  2  0
 35 36  1  0
 35 37  1  0
 36141  1  0
 36142  1  0
 37 38  1  0
 37143  1  0
 39 41  2  0
 39 42  1  0
 39 40  1  0
 42 43  1  0
 43 44  1  0
 43144  1  0
 43145  1  0
 44 46  1  0
 44 45  1  0
 44146  1  0
 45 49  1  0
 46 48  1  0
 46 47  1  0
 46147  1  0
 47 59  1  0
 48 49  1  0
 48148  1  0
 48149  1  0
 49 50  1  0
 49150  1  0
 50 51  1  0
 50 58  1  0
 51 53  1  0
 51 52  2  0
 53 54  1  0
 53151  1  0
 54 55  2  0
 54 56  1  0
 56 57  1  0
 56 58  2  0
 57152  1  0
 57153  1  0
 57154  1  0
 58155  1  0
 59 61  2  0
 59 62  1  0
 59 60  1  0
 62 63  1  0
 63 64  1  0
 63156  1  0
 63157  1  0
 64 66  1  0
 64 65  1  0
 64158  1  0
 65 69  1  0
 66 68  1  0
 66 67  1  0
 66159  1  0
 67 80  1  0
 68 69  1  0
 68160  1  0
 68161  1  0
 69 70  1  0
 69162  1  0
 70 79  1  0
 70 71  1  0
 71 72  2  0
 71163  1  0
 72 73  1  0
 73 79  2  0
 73 74  1  0
 74 76  2  0
 74 75  1  0
 75164  1  0
 75165  1  0
 76 77  1  0
 77 78  2  0
 77166  1  0
 78 79  1  0
 80 83  1  0
 80 82  2  0
 80 81  1  0
 83 84  1  0
 84 85  1  0
 84167  1  0
 84168  1  0
 85 87  1  0
 85 86  1  0
 85169  1  0
 86 90  1  0
 87 88  1  0
 87 89  1  0
 87170  1  0
 88 99  1  0
 89 90  1  0
 89171  1  0
 89172  1  0
 90 91  1  0
 90173  1  0
 91 98  1  0
 91 92  1  0
 92 93  2  0
 92 94  1  0
 94 95  2  0
 95 97  1  0
 95 96  1  0
 96174  1  0
 96175  1  0
 97 98  2  0
 97176  1  0
 98177  1  0
 99100  2  0
 99101  1  0
 99102  1  0
102103  1  0
103104  1  0
103178  1  0
103179  1  0
104105  1  0
104106  1  0
104180  1  0
105109  1  0
106108  1  0
106107  1  0
106181  1  0
107182  1  0
108109  1  0
108183  1  0
108184  1  0
109110  1  0
109185  1  0
110111  1  0
110120  1  0
111112  2  0
111186  1  0
112113  1  0
113114  1  0
113120  2  0
114115  2  0
114116  1  0
116117  2  0
117118  1  0
117119  1  0
118187  1  0
118188  1  0
119120  1  0
119189  1  0
M  CHG  5  18  -1  40  -1  60  -1  81  -1 101  -1
M  END
$$$$
DNA (5'-D(*CP*GP*TP*AP*CP*G)-3')
     RDKit          3D

189203  0  0  0  0  0  0  0  0999 V2000
    2.4624   -0.5641   -3.0277 O   0  0  0  0  0  0  0  0  0  0  0  0
    2.1681   -1.5603   -3.9288 C   0  0  0  0  0  0  0  0  0  0  0  0
    0.9422   -1.2413   -4.7260 C   0  0  0  0  0  0  0  0  0  0  0  0
    1.0480   -0.0839   -5.4570 O   0  0  0  0  0  0  0  0  0  0  0  0
   -0.2404   -1.0885   -3.7941 C   0  0  0  0  0  0  0  0  0  0  0  0
    0.2206   -0.5126   -2.6247 O   0  0  0  0  0  0  0  0  0  0  0  0
   -0.9960    0.0295   -4.5217 C   0  0  0  0  0  0  0  0  0  0  0  0
    0.2318    0.8734   -4.8621 C   0  0  0  0  0  0  0  0  0  0  0  0
   -0.0876    1.9442   -5.7539 N   0  0  0  0  0  0  0  0  0  0  0  0
    0.3982    1.9003   -7.0079 C   0  0  0  0  0  0  0  0  0  0  0  0
    1.1139    0.9278   -7.3509 O   0  0  0  0  0  0  0  0  0  0  0  0
    0.0772    2.9213   -7.8222 N   0  0  0  0  0  0  0  0  0  0  0  0
   -0.6973    3.9496   -7.4093 C   0  0  0  0  0  0  0  0  0  0  0  0
   -0.9956    4.9873   -8.3098 N   0  0  0  0  0  0  0  0  0  0  0  0
   -1.1992    3.9953   -6.1120 C   0  0  0  0  0  0  0  0  0  0  0  0
   -0.8606    2.9428   -5.2946 C   0  0  0  0  0  0  0  0  0  0  0  0
   -0.2290   -1.3451   -1.2323 P   0  0  0  0  0  0  0  0  0  0  0  0
    1.2269   -1.5785   -0.3622 O   0  0  0  0  0  0  0  0  0  0  0  0
   -0.7322   -2.6922   -1.6178 O   0  0  0  0  0  0  0  0  0  0  0  0
   -1.2553   -0.4723   -0.2292 O   0  0  0  0  0  0  0  0  0  0  0  0
   -0.7837   -0.4195    1.1034 C   0  0  0  0  0  0  0  0  0  0  0  0
   -1.6574    0.5058    1.8760 C   0  0  0  0  0  0  0  0  0  0  0  0
   -1.2772    0.6481    3.2329 O   0  0  0  0  0  0  0  0  0  0  0  0
   -1.5959    1.9452    1.4334 C   0  0  0  0  0  0  0  0  0  0  0  0
   -0.2817    2.3585    1.4830 O   0  0  0  0  0  0  0  0  0  0  0  0
   -2.3050    2.6407    2.6013 C   0  0  0  0  0  0  0  0  0  0  0  0
   -2.2505    1.5410    3.6489 C   0  0  0  0  0  0  0  0  0  0  0  0
   -2.1243    2.0443    4.9713 N   0  0  0  0  0  0  0  0  0  0  0  0
   -3.0501    1.8589    5.9603 C   0  0  0  0  0  0  0  0  0  0  0  0
   -2.6480    2.4642    7.0842 N   0  0  0  0  0  0  0  0  0  0  0  0
   -1.4543    3.0581    6.8586 C   0  0  0  0  0  0  0  0  0  0  0  0
   -0.6085    3.8062    7.6656 C   0  0  0  0  0  0  0  0  0  0  0  0
   -0.9270    4.0317    8.8573 O   0  0  0  0  0  0  0  0  0  0  0  0
    0.5240    4.2483    7.0931 N   0  0  0  0  0  0  0  0  0  0  0  0
    0.8535    3.9957    5.8026 C   0  0  0  0  0  0  0  0  0  0  0  0
    2.0509    4.4791    5.2324 N   0  0  0  0  0  0  0  0  0  0  0  0
   -0.0090    3.2601    5.0595 N   0  0  0  0  0  0  0  0  0  0  0  0
   -1.1605    2.7757    5.5357 C   0  0  0  0  0  0  0  0  0  0  0  0
    0.2494    3.1353    0.0917 P   0  0  0  0  0  0  0  0  0  0  0  0
    0.4407    4.7998    0.2995 O   0  0  0  0  0  0  0  0  0  0  0  0
   -0.7708    2.9157   -1.0323 O   0  0  0  0  0  0  0  0  0  0  0  0
    1.7278    2.4330   -0.3404 O   0  0  0  0  0  0  0  0  0  0  0  0
    2.4803    2.0745    0.7718 C   0  0  0  0  0  0  0  0  0  0  0  0
    3.6136    1.2042    0.2604 C   0  0  0  0  0  0  0  0  0  0  0  0
    4.3760    1.9365   -0.5875 O   0  0  0  0  0  0  0  0  0  0  0  0
    4.5005    0.7141    1.3500 C   0  0  0  0  0  0  0  0  0  0  0  0
    4.3184    1.4108    2.5182 O   0  0  0  0  0  0  0  0  0  0  0  0
    5.8884    0.8210    0.7658 C   0  0  0  0  0  0  0  0  0  0  0  0
    5.7014    1.8360   -0.2983 C   0  0  0  0  0  0  0  0  0  0  0  0
    6.4420    1.5836   -1.5164 N   0  0  0  0  0  0  0  0  0  0  0  0
    7.3707    2.4311   -1.9906 C   0  0  0  0  0  0  0  0  0  0  0  0
    7.5876    3.4948   -1.3182 O   0  0  0  0  0  0  0  0  0  0  0  0
    8.0640    2.1922   -3.1316 N   0  0  0  0  0  0  0  0  0  0  0  0
    7.8617    1.0788   -3.8661 C   0  0  0  0  0  0  0  0  0  0  0  0
    8.4996    0.8409   -4.9328 O   0  0  0  0  0  0  0  0  0  0  0  0
    6.9026    0.1918   -3.3873 C   0  0  0  0  0  0  0  0  0  0  0  0
    6.6466   -1.0332   -4.1510 C   0  0  0  0  0  0  0  0  0  0  0  0
    6.1968    0.4522   -2.2119 C   0  0  0  0  0  0  0  0  0  0  0  0
    3.8234    0.5353    3.8363 P   0  0  0  0  0  0  0  0  0  0  0  0
    4.9940    0.5644    5.0773 O   0  0  0  0  0  0  0  0  0  0  0  0
    2.6070    1.2488    4.4273 O   0  0  0  0  0  0  0  0  0  0  0  0
    3.4107   -1.0689    3.5145 O   0  0  0  0  0  0  0  0  0  0  0  0
    2.5483   -1.5815    4.4526 C   0  0  0  0  0  0  0  0  0  0  0  0
    2.4662   -3.0636    4.5372 C   0  0  0  0  0  0  0  0  0  0  0  0
    3.7294   -3.5975    4.8173 O   0  0  0  0  0  0  0  0  0  0  0  0
    1.8633   -3.7915    3.4040 C   0  0  0  0  0  0  0  0  0  0  0  0
    0.5802   -4.2755    3.6585 O   0  0  0  0  0  0  0  0  0  0  0  0
    2.8359   -5.0175    3.3528 C   0  0  0  0  0  0  0  0  0  0  0  0
    4.1084   -4.2113    3.6265 C   0  0  0  0  0  0  0  0  0  0  0  0
    5.2513   -5.0532    3.7353 N   0  0  0  0  0  0  0  0  0  0  0  0
    6.1886   -5.1553    4.7103 C   0  0  0  0  0  0  0  0  0  0  0  0
    7.0735   -6.1056    4.3477 N   0  0  0  0  0  0  0  0  0  0  0  0
    6.7413   -6.6223    3.1706 C   0  0  0  0  0  0  0  0  0  0  0  0
    7.2807   -7.6026    2.3469 C   0  0  0  0  0  0  0  0  0  0  0  0
    8.4698   -8.2996    2.7330 N   0  0  0  0  0  0  0  0  0  0  0  0
    6.6669   -7.9011    1.1628 N   0  0  0  0  0  0  0  0  0  0  0  0
    5.5324   -7.2417    0.7903 C   0  0  0  0  0  0  0  0  0  0  0  0
    5.0263   -6.2985    1.5970 N   0  0  0  0  0  0  0  0  0  0  0  0
    5.5936   -5.9650    2.7779 C   0  0  0  0  0  0  0  0  0  0  0  0
   -0.3059   -4.5378    2.2817 P   0  0  0  0  0  0  0  0  0  0  0  0
   -0.5153   -6.2465    2.1681 O   0  0  0  0  0  0  0  0  0  0  0  0
    0.3303   -4.1299    1.0026 O   0  0  0  0  0  0  0  0  0  0  0  0
   -1.8869   -3.9194    2.3246 O   0  0  0  0  0  0  0  0  0  0  0  0
   -2.7167   -4.7746    1.5652 C   0  0  0  0  0  0  0  0  0  0  0  0
   -4.1703   -4.5283    1.6953 C   0  0  0  0  0  0  0  0  0  0  0  0
   -4.8170   -5.5309    0.8938 O   0  0  0  0  0  0  0  0  0  0  0  0
   -4.6988   -3.3212    0.9479 C   0  0  0  0  0  0  0  0  0  0  0  0
   -4.2094   -2.1131    1.3463 O   0  0  0  0  0  0  0  0  0  0  0  0
   -4.3357   -3.7151   -0.4791 C   0  0  0  0  0  0  0  0  0  0  0  0
   -4.5087   -5.1971   -0.4217 C   0  0  0  0  0  0  0  0  0  0  0  0
   -5.5570   -5.5873   -1.3416 N   0  0  0  0  0  0  0  0  0  0  0  0
   -5.1896   -6.0002   -2.5734 C   0  0  0  0  0  0  0  0  0  0  0  0
   -3.9721   -6.0274   -2.8881 O   0  0  0  0  0  0  0  0  0  0  0  0
   -6.1063   -6.3912   -3.4941 N   0  0  0  0  0  0  0  0  0  0  0  0
   -7.4184   -6.3789   -3.2045 C   0  0  0  0  0  0  0  0  0  0  0  0
   -8.3673   -6.7979   -4.1834 N   0  0  0  0  0  0  0  0  0  0  0  0
   -7.8392   -5.9641   -1.9576 C   0  0  0  0  0  0  0  0  0  0  0  0
   -6.8624   -5.5713   -1.0444 C   0  0  0  0  0  0  0  0  0  0  0  0
   -5.5421   -1.1740    1.8590 P   0  0  0  0  0  0  0  0  0  0  0  0
   -6.8409   -1.7658    1.3067 O   0  0  0  0  0  0  0  0  0  0  0  0
   -5.6937   -1.2056    3.5495 O   0  0  0  0  0  0  0  0  0  0  0  0
   -5.4670    0.4135    1.3615 O   0  0  0  0  0  0  0  0  0  0  0  0
   -5.2591    0.6080    0.0172 C   0  0  0  0  0  0  0  0  0  0  0  0
   -5.6623    1.9841   -0.4458 C   0  0  0  0  0  0  0  0  0  0  0  0
   -4.9858    3.0192    0.1905 O   0  0  0  0  0  0  0  0  0  0  0  0
   -5.4859    2.2202   -1.9088 C   0  0  0  0  0  0  0  0  0  0  0  0
   -4.4059    1.5338   -2.4424 O   0  0  0  0  0  0  0  0  0  0  0  0
   -5.2356    3.7368   -1.9343 C   0  0  0  0  0  0  0  0  0  0  0  0
   -5.5315    4.1159   -0.5201 C   0  0  0  0  0  0  0  0  0  0  0  0
   -4.9852    5.3738   -0.1284 N   0  0  0  0  0  0  0  0  0  0  0  0
   -4.3305    6.2227   -0.9441 C   0  0  0  0  0  0  0  0  0  0  0  0
   -3.9426    7.3243   -0.2417 N   0  0  0  0  0  0  0  0  0  0  0  0
   -4.3609    7.1605    1.0275 C   0  0  0  0  0  0  0  0  0  0  0  0
   -4.2167    7.9960    2.1310 C   0  0  0  0  0  0  0  0  0  0  0  0
   -3.6290    9.1042    2.0762 O   0  0  0  0  0  0  0  0  0  0  0  0
   -4.7345    7.5841    3.2944 N   0  0  0  0  0  0  0  0  0  0  0  0
   -5.3629    6.4013    3.3510 C   0  0  0  0  0  0  0  0  0  0  0  0
   -5.8915    6.0329    4.6368 N   0  0  0  0  0  0  0  0  0  0  0  0
   -5.5078    5.5853    2.2872 N   0  0  0  0  0  0  0  0  0  0  0  0
   -5.0079    5.9458    1.0893 C   0  0  0  0  0  0  0  0  0  0  0  0
    3.0522   -0.8804   -2.3012 H   0  0  0  0  0  0  0  0  0  0  0  0
    3.0377   -1.8001   -4.5764 H   0  0  0  0  0  0  0  0  0  0  0  0
    1.9500   -2.4898   -3.3622 H   0  0  0  0  0  0  0  0  0  0  0  0
    0.7384   -2.1494   -5.3574 H   0  0  0  0  0  0  0  0  0  0  0  0
   -0.8423   -1.9859   -3.6795 H   0  0  0  0  0  0  0  0  0  0  0  0
   -1.4447   -0.4372   -5.4040 H   0  0  0  0  0  0  0  0  0  0  0  0
   -1.6895    0.5454   -3.8490 H   0  0  0  0  0  0  0  0  0  0  0  0
    0.6410    1.2289   -3.8893 H   0  0  0  0  0  0  0  0  0  0  0  0
   -1.4616    5.8589   -7.9995 H   0  0  0  0  0  0  0  0  0  0  0  0
   -0.7567    4.9092   -9.3181 H   0  0  0  0  0  0  0  0  0  0  0  0
   -1.8171    4.7991   -5.7557 H   0  0  0  0  0  0  0  0  0  0  0  0
   -1.2406    2.9568   -4.2777 H   0  0  0  0  0  0  0  0  0  0  0  0
   -0.8263   -1.4560    1.5070 H   0  0  0  0  0  0  0  0  0  0  0  0
    0.2450   -0.0303    1.0463 H   0  0  0  0  0  0  0  0  0  0  0  0
   -2.7128    0.1730    1.9259 H   0  0  0  0  0  0  0  0  0  0  0  0
   -2.1114    2.1527    0.4810 H   0  0  0  0  0  0  0  0  0  0  0  0
   -3.3452    2.9144    2.3577 H   0  0  0  0  0  0  0  0  0  0  0  0
   -1.7601    3.5369    2.9355 H   0  0  0  0  0  0  0  0  0  0  0  0
   -3.2342    1.0000    3.5260 H   0  0  0  0  0  0  0  0  0  0  0  0
   -3.9748    1.3004    5.8435 H   0  0  0  0  0  0  0  0  0  0  0  0
    2.9443    4.2769    5.7385 H   0  0  0  0  0  0  0  0  0  0  0  0
    2.0659    5.0189    4.3416 H   0  0  0  0  0  0  0  0  0  0  0  0
    0.2640    3.0797    4.0816 H   0  0  0  0  0  0  0  0  0  0  0  0
    1.9220    1.5527    1.5541 H   0  0  0  0  0  0  0  0  0  0  0  0
    2.8709    3.0131    1.2296 H   0  0  0  0  0  0  0  0  0  0  0  0
    3.0936    0.3494   -0.2458 H   0  0  0  0  0  0  0  0  0  0  0  0
    4.3017   -0.3633    1.6014 H   0  0  0  0  0  0  0  0  0  0  0  0
    6.2700   -0.1540    0.4073 H   0  0  0  0  0  0  0  0  0  0  0  0
    6.5615    1.1553    1.5836 H   0  0  0  0  0  0  0  0  0  0  0  0
    6.0441    2.8275    0.0921 H   0  0  0  0  0  0  0  0  0  0  0  0
    8.7871    2.9027   -3.4566 H   0  0  0  0  0  0  0  0  0  0  0  0
    7.0659   -0.9550   -5.1748 H   0  0  0  0  0  0  0  0  0  0  0  0
    5.5715   -1.2673   -4.2926 H   0  0  0  0  0  0  0  0  0  0  0  0
    7.1516   -1.9292   -3.6810 H   0  0  0  0  0  0  0  0  0  0  0  0
    5.4643   -0.2782   -1.8949 H   0  0  0  0  0  0  0  0  0  0  0  0
    1.4934   -1.2167    4.2869 H   0  0  0  0  0  0  0  0  0  0  0  0
    2.8686   -1.2133    5.4635 H   0  0  0  0  0  0  0  0  0  0  0  0
    1.8591   -3.3335    5.4644 H   0  0  0  0  0  0  0  0  0  0  0  0
    1.9897   -3.3629    2.3963 H   0  0  0  0  0  0  0  0  0  0  0  0
    2.5309   -5.6187    4.2116 H   0  0  0  0  0  0  0  0  0  0  0  0
    2.8117   -5.4844    2.3739 H   0  0  0  0  0  0  0  0  0  0  0  0
    4.1596   -3.4193    2.8603 H   0  0  0  0  0  0  0  0  0  0  0  0
    6.1864   -4.5551    5.6119 H   0  0  0  0  0  0  0  0  0  0  0  0
    9.2972   -8.2541    2.0862 H   0  0  0  0  0  0  0  0  0  0  0  0
    8.4832   -8.8314    3.6393 H   0  0  0  0  0  0  0  0  0  0  0  0
    5.0189   -7.4488   -0.1345 H   0  0  0  0  0  0  0  0  0  0  0  0
   -2.4505   -5.8169    1.8334 H   0  0  0  0  0  0  0  0  0  0  0  0
   -2.4145   -4.6909    0.4799 H   0  0  0  0  0  0  0  0  0  0  0  0
   -4.5630   -4.6233    2.7093 H   0  0  0  0  0  0  0  0  0  0  0  0
   -5.8103   -3.3487    1.0620 H   0  0  0  0  0  0  0  0  0  0  0  0
   -5.1162   -3.2173   -1.1138 H   0  0  0  0  0  0  0  0  0  0  0  0
   -3.3450   -3.3711   -0.7770 H   0  0  0  0  0  0  0  0  0  0  0  0
   -3.6033   -5.7839   -0.6858 H   0  0  0  0  0  0  0  0  0  0  0  0
   -8.2157   -6.6786   -5.2166 H   0  0  0  0  0  0  0  0  0  0  0  0
   -9.2489   -7.2442   -3.8444 H   0  0  0  0  0  0  0  0  0  0  0  0
   -8.8811   -5.9395   -1.6802 H   0  0  0  0  0  0  0  0  0  0  0  0
   -7.1278   -5.2281   -0.0363 H   0  0  0  0  0  0  0  0  0  0  0  0
   -5.9095   -0.1045   -0.5474 H   0  0  0  0  0  0  0  0  0  0  0  0
   -4.2082    0.4652   -0.3045 H   0  0  0  0  0  0  0  0  0  0  0  0
   -6.7527    2.1753   -0.2192 H   0  0  0  0  0  0  0  0  0  0  0  0
   -6.3768    1.9350   -2.4877 H   0  0  0  0  0  0  0  0  0  0  0  0
   -4.4094    1.5140   -3.4243 H   0  0  0  0  0  0  0  0  0  0  0  0
   -4.2213    3.9799   -2.2481 H   0  0  0  0  0  0  0  0  0  0  0  0
   -6.0044    4.1921   -2.6051 H   0  0  0  0  0  0  0  0  0  0  0  0
   -6.6316    4.1508   -0.3710 H   0  0  0  0  0  0  0  0  0  0  0  0
   -4.1110    6.1073   -2.0064 H   0  0  0  0  0  0  0  0  0  0  0  0
   -6.5920    6.6417    5.1404 H   0  0  0  0  0  0  0  0  0  0  0  0
   -5.5379    5.1299    5.0357 H   0  0  0  0  0  0  0  0  0  0  0  0
   -6.0104    4.6560    2.3605 H   0  0  0  0  0  0  0  0  0  0  0  0
  1  2  1  0
  1121  1  0
  2  3  1  0
  2122  1  0
  2123  1  0
  3  4  1  0
  3  5  1  0
  3124  1  0
  4  8  1  0
  5  7  1  0
  5  6  1  0
  5125  1  0
  6 17  1  0
  7  8  1  0
  7126  1  0
  7127  1  0
  8  9  1  0
  8128  1  0
  9 16  1  0
  9 10  1  0
 10 12  1  0
 10 11  2  0
 12 13  2  0
 13 15  1  0
 13 14  1  0
 14129  1  0
 14130  1  0
 15 16  2  0
 15131  1  0
 16132  1  0
 17 20  1  0
 17 19  2  0
 17 18  1  0
 20 21  1  0
 21 22  1  0
 21133  1  0
 21134  1  0
 22 24  1  0
 22 23  1  0
 22135  1  0
 23 27  1  0
 24 25  1  0
 24 26  1  0
 24136  1  0
 25 39  1  0
 26 27  1  0
 26137  1  0
 26138  1  0
 27 28  1  0
 27139  1  0
 28 38  1  0
 28 29  1  0
 29 30  2  0
 29140  1  0
 30 31  1  0
 31 32  1  0
 31 38  2  0
 32 33  2  0
 32 34  1  0
 34 35  2  0
 35 36  1  0
 35 37  1  0
 36141  1  0
 36142  1  0
 37 38  1  0
 37143  1  0
 39 41  2  0
 39 42  1  0
 39 40  1  0
 42 43  1  0
 43 44  1  0
 43144  1  0
 43145  1  0
 44 46  1  0
 44 45  1  0
 44146  1  0
 45 49  1  0
 46 48  1  0
 46 47  1  0
 46147  1  0
 47 59  1  0
 48 49  1  0
 48148  1  0
 48149  1  0
 49 50  1  0
 49150  1  0
 50 51  1  0
 50 58  1  0
 51 53  1  0
 51 52  2  0
 53 54  1  0
 53151  1  0
 54 55  2  0
 54 56  1  0
 56 57  1  0
 56 58  2  0
 57152  1  0
 57153  1  0
 57154  1  0
 58155  1  0
 59 61  2  0
 59 62  1  0
 59 60  1  0
 62 63  1  0
 63 64  1  0
 63156  1  0
 63157  1  0
 64 66  1  0
 64 65  1  0
 64158  1  0
 65 69  1  0
 66 68  1  0
 66 67  1  0
 66159  1  0
 67 80  1  0
 68 69  1  0
 68160  1  0
 68161  1  0
 69 70  1  0
 69162  1  0
 70 79  1  0
 70 71  1  0
 71 72  2  0
 71163  1  0
 72 73  1  0
 73 79  2  0
 73 74  1  0
 74 76  2  0
 74 75  1  0
 75164  1  0
 75165  1  0
 76 77  1  0
 77 78  2  0
 77166  1  0
 78 79  1  0
 80 83  1  0
 80 82  2  0
 80 81  1  0
 83 84  1  0
 84 85  1  0
 84167  1  0
 84168  1  0
 85 87  1  0
 85 86  1  0
 85169  1  0
 86 90  1  0
 87 88  1  0
 87 89  1  0
 87170  1  0
 88 99  1  0
 89 90  1  0
 89171  1  0
 89172  1  0
 90 91  1  0
 90173  1  0
 91 98  1  0
 91 92  1  0
 92 93  2  0
 92 94  1  0
 94 95  2  0
 95 97  1  0
 95 96  1  0
 96174  1  0
 96175  1  0
 97 98  2  0
 97176  1  0
 98177  1  0
 99100  2  0
 99101  1  0
 99102  1  0
102103  1  0
103104  1  0
103178  1  0
103179  1  0
104105  1  0
104106  1  0
104180  1  0
105109  1  0
106108  1  0
106107  1  0
106181  1  0
107182  1  0
108109  1  0
108183  1  0
108184  1  0
109110  1  0
109185  1  0
110111  1  0
110120  1  0
111112  2  0
111186  1  0
112113  1  0
113114  1  0
113120  2  0
114115  2  0
114116  1  0
116117  2  0
117118  1  0
117119  1  0
118187  1  0
118188  1  0
119120  1  0
119189  1  0
M  CHG  5  18  -1  40  -1  60  -1  81  -1 101  -1
M  END
$$$$
DNA (5'-D(*CP*GP*TP*AP*CP*G)-3')
     RDKit          3D

189203  0  0  0  0  0  0  0  0999 V2000
    7.3652    4.6334    0.9954 O   0  0  0  0  0  0  0  0  0  0  0  0
    7.0095    3.6559    0.0783 C   0  0  0  0  0  0  0  0  0  0  0  0
    6.1646    2.5747    0.7362 C   0  0  0  0  0  0  0  0  0  0  0  0
    6.8378    1.9623    1.7834 O   0  0  0  0  0  0  0  0  0  0  0  0
    4.8773    3.0380    1.2453 C   0  0  0  0  0  0  0  0  0  0  0  0
    3.7622    2.4376    0.6657 O   0  0  0  0  0  0  0  0  0  0  0  0
    4.9027    2.7093    2.7462 C   0  0  0  0  0  0  0  0  0  0  0  0
    5.8315    1.5057    2.6509 C   0  0  0  0  0  0  0  0  0  0  0  0
    6.3060    1.0172    3.9019 N   0  0  0  0  0  0  0  0  0  0  0  0
    5.6399    1.1726    5.0802 C   0  0  0  0  0  0  0  0  0  0  0  0
    4.5518    1.7894    5.1523 O   0  0  0  0  0  0  0  0  0  0  0  0
    6.1199    0.6707    6.2380 N   0  0  0  0  0  0  0  0  0  0  0  0
    7.2721   -0.0090    6.3051 C   0  0  0  0  0  0  0  0  0  0  0  0
    7.6784   -0.4941    7.5673 N   0  0  0  0  0  0  0  0  0  0  0  0
    7.9789   -0.1885    5.1319 C   0  0  0  0  0  0  0  0  0  0  0  0
    7.4708    0.3307    3.9728 C   0  0  0  0  0  0  0  0  0  0  0  0
    2.4625    3.5083    0.5516 P   0  0  0  0  0  0  0  0  0  0  0  0
    3.0738    5.0789    0.6910 O   0  0  0  0  0  0  0  0  0  0  0  0
    1.4810    3.2981    1.6828 O   0  0  0  0  0  0  0  0  0  0  0  0
    1.7311    3.2707   -0.9498 O   0  0  0  0  0  0  0  0  0  0  0  0
    0.9522    4.4036   -1.1878 C   0  0  0  0  0  0  0  0  0  0  0  0
    0.6851    4.5996   -2.6500 C   0  0  0  0  0  0  0  0  0  0  0  0
    1.8763    4.7356   -3.3722 O   0  0  0  0  0  0  0  0  0  0  0  0
    0.0715    3.3992   -3.2833 C   0  0  0  0  0  0  0  0  0  0  0  0
    0.8480    2.2871   -3.0094 O   0  0  0  0  0  0  0  0  0  0  0  0
    0.2286    3.8526   -4.7545 C   0  0  0  0  0  0  0  0  0  0  0  0
    1.5840    4.4586   -4.6876 C   0  0  0  0  0  0  0  0  0  0  0  0
    1.7660    5.6784   -5.4322 N   0  0  0  0  0  0  0  0  0  0  0  0
    2.5317    6.7284   -5.0163 C   0  0  0  0  0  0  0  0  0  0  0  0
    2.4896    7.7070   -5.9349 N   0  0  0  0  0  0  0  0  0  0  0  0
    1.7013    7.3204   -6.9643 C   0  0  0  0  0  0  0  0  0  0  0  0
    1.3227    7.9318   -8.1468 C   0  0  0  0  0  0  0  0  0  0  0  0
    1.7441    9.0807   -8.4095 O   0  0  0  0  0  0  0  0  0  0  0  0
    0.5041    7.2246   -8.9514 N   0  0  0  0  0  0  0  0  0  0  0  0
    0.0674    5.9784   -8.6313 C   0  0  0  0  0  0  0  0  0  0  0  0
   -0.7952    5.2349   -9.4778 N   0  0  0  0  0  0  0  0  0  0  0  0
    0.4479    5.4091   -7.4807 N   0  0  0  0  0  0  0  0  0  0  0  0
    1.2612    6.0510   -6.6296 C   0  0  0  0  0  0  0  0  0  0  0  0
   -0.0963    0.9359   -2.6371 P   0  0  0  0  0  0  0  0  0  0  0  0
   -1.3597    1.3402   -1.5704 O   0  0  0  0  0  0  0  0  0  0  0  0
   -0.6882    0.3841   -3.9483 O   0  0  0  0  0  0  0  0  0  0  0  0
    0.8668   -0.2980   -2.0357 O   0  0  0  0  0  0  0  0  0  0  0  0
    2.0673    0.0823   -1.5070 C   0  0  0  0  0  0  0  0  0  0  0  0
    2.8577   -1.1699   -1.1466 C   0  0  0  0  0  0  0  0  0  0  0  0
    4.1023   -0.8332   -0.6343 O   0  0  0  0  0  0  0  0  0  0  0  0
    2.2326   -1.8594    0.0723 C   0  0  0  0  0  0  0  0  0  0  0  0
    1.9838   -0.9709    1.1072 O   0  0  0  0  0  0  0  0  0  0  0  0
    3.4133   -2.7477    0.4813 C   0  0  0  0  0  0  0  0  0  0  0  0
    4.5768   -1.9113    0.0594 C   0  0  0  0  0  0  0  0  0  0  0  0
    5.6330   -2.6488   -0.5849 N   0  0  0  0  0  0  0  0  0  0  0  0
    6.9374   -2.3887   -0.3198 C   0  0  0  0  0  0  0  0  0  0  0  0
    7.2293   -1.4687    0.5111 O   0  0  0  0  0  0  0  0  0  0  0  0
    7.9183   -3.0798   -0.9140 N   0  0  0  0  0  0  0  0  0  0  0  0
    7.6918   -4.0687   -1.8056 C   0  0  0  0  0  0  0  0  0  0  0  0
    8.6378   -4.6941   -2.3418 O   0  0  0  0  0  0  0  0  0  0  0  0
    6.3764   -4.3565   -2.0982 C   0  0  0  0  0  0  0  0  0  0  0  0
    6.0173   -5.4285   -3.0585 C   0  0  0  0  0  0  0  0  0  0  0  0
    5.3868   -3.6278   -1.4700 C   0  0  0  0  0  0  0  0  0  0  0  0
    0.4786   -1.1236    1.8134 P   0  0  0  0  0  0  0  0  0  0  0  0
   -0.1516   -2.6593    1.5058 O   0  0  0  0  0  0  0  0  0  0  0  0
    0.5535   -0.9855    3.3260 O   0  0  0  0  0  0  0  0  0  0  0  0
   -0.5525    0.0763    1.2744 O   0  0  0  0  0  0  0  0  0  0  0  0
   -1.5536    0.3803    2.2265 C   0  0  0  0  0  0  0  0  0  0  0  0
   -2.3611    1.5208    1.6548 C   0  0  0  0  0  0  0  0  0  0  0  0
   -1.5017    2.5865    1.4647 O   0  0  0  0  0  0  0  0  0  0  0  0
   -3.4438    1.9492    2.5869 C   0  0  0  0  0  0  0  0  0  0  0  0
   -3.8158    0.8705    3.3783 O   0  0  0  0  0  0  0  0  0  0  0  0
   -2.7698    3.0500    3.3727 C   0  0  0  0  0  0  0  0  0  0  0  0
   -1.8074    3.5861    2.3430 C   0  0  0  0  0  0  0  0  0  0  0  0
   -2.4463    4.6459    1.5912 N   0  0  0  0  0  0  0  0  0  0  0  0
   -3.3117    4.5177    0.5694 C   0  0  0  0  0  0  0  0  0  0  0  0
   -3.6903    5.7521    0.1223 N   0  0  0  0  0  0  0  0  0  0  0  0
   -3.0423    6.6607    0.8861 C   0  0  0  0  0  0  0  0  0  0  0  0
   -3.0510    8.0300    0.8711 C   0  0  0  0  0  0  0  0  0  0  0  0
   -3.8630    8.6793   -0.0881 N   0  0  0  0  0  0  0  0  0  0  0  0
   -2.2876    8.6680    1.7690 N   0  0  0  0  0  0  0  0  0  0  0  0
   -1.5316    7.9873    2.6632 C   0  0  0  0  0  0  0  0  0  0  0  0
   -1.5232    6.6288    2.6773 N   0  0  0  0  0  0  0  0  0  0  0  0
   -2.2787    5.9676    1.7879 C   0  0  0  0  0  0  0  0  0  0  0  0
   -5.4904    0.6738    3.1358 P   0  0  0  0  0  0  0  0  0  0  0  0
   -6.1542    2.2317    3.2094 O   0  0  0  0  0  0  0  0  0  0  0  0
   -5.9928   -0.1969    4.2562 O   0  0  0  0  0  0  0  0  0  0  0  0
   -5.7842   -0.0261    1.6167 O   0  0  0  0  0  0  0  0  0  0  0  0
   -6.7258    0.7427    0.9744 C   0  0  0  0  0  0  0  0  0  0  0  0
   -7.0185    0.2598   -0.4228 C   0  0  0  0  0  0  0  0  0  0  0  0
   -5.8289    0.2869   -1.1907 O   0  0  0  0  0  0  0  0  0  0  0  0
   -7.3749   -1.2040   -0.5027 C   0  0  0  0  0  0  0  0  0  0  0  0
   -6.4546   -1.9260    0.2087 O   0  0  0  0  0  0  0  0  0  0  0  0
   -7.1577   -1.4721   -1.9944 C   0  0  0  0  0  0  0  0  0  0  0  0
   -6.1274   -0.4113   -2.3349 C   0  0  0  0  0  0  0  0  0  0  0  0
   -4.9294   -1.0979   -2.7813 N   0  0  0  0  0  0  0  0  0  0  0  0
   -4.9635   -1.7659   -3.9551 C   0  0  0  0  0  0  0  0  0  0  0  0
   -6.0260   -1.7662   -4.6132 O   0  0  0  0  0  0  0  0  0  0  0  0
   -3.8690   -2.4212   -4.4070 N   0  0  0  0  0  0  0  0  0  0  0  0
   -2.7211   -2.4267   -3.7063 C   0  0  0  0  0  0  0  0  0  0  0  0
   -1.5616   -3.1106   -4.1888 N   0  0  0  0  0  0  0  0  0  0  0  0
   -2.6620   -1.7437   -2.4919 C   0  0  0  0  0  0  0  0  0  0  0  0
   -3.7789   -1.0834   -2.0445 C   0  0  0  0  0  0  0  0  0  0  0  0
   -7.1172   -2.9966    1.3042 P   0  0  0  0  0  0  0  0  0  0  0  0
   -7.7475   -2.2485    2.4382 O   0  0  0  0  0  0  0  0  0  0  0  0
   -8.2939   -3.9893    0.5838 O   0  0  0  0  0  0  0  0  0  0  0  0
   -5.8597   -4.0118    1.8712 O   0  0  0  0  0  0  0  0  0  0  0  0
   -5.3733   -3.5104    3.0641 C   0  0  0  0  0  0  0  0  0  0  0  0
   -4.3744   -4.4129    3.7241 C   0  0  0  0  0  0  0  0  0  0  0  0
   -3.2456   -4.6470    2.9196 O   0  0  0  0  0  0  0  0  0  0  0  0
   -4.9454   -5.7982    3.8972 C   0  0  0  0  0  0  0  0  0  0  0  0
   -5.8151   -6.1043    2.8558 O   0  0  0  0  0  0  0  0  0  0  0  0
   -3.7063   -6.6571    3.8733 C   0  0  0  0  0  0  0  0  0  0  0  0
   -2.6078   -5.6351    3.6690 C   0  0  0  0  0  0  0  0  0  0  0  0
   -1.4336   -6.1794    3.0526 N   0  0  0  0  0  0  0  0  0  0  0  0
   -0.3551   -6.6340    3.7504 C   0  0  0  0  0  0  0  0  0  0  0  0
    0.5819   -7.0841    2.9185 N   0  0  0  0  0  0  0  0  0  0  0  0
    0.1383   -6.9360    1.6670 C   0  0  0  0  0  0  0  0  0  0  0  0
    0.6322   -7.2071    0.4171 C   0  0  0  0  0  0  0  0  0  0  0  0
    1.7723   -7.7184    0.2718 O   0  0  0  0  0  0  0  0  0  0  0  0
   -0.0690   -6.9413   -0.6855 N   0  0  0  0  0  0  0  0  0  0  0  0
   -1.2818   -6.3971   -0.5672 C   0  0  0  0  0  0  0  0  0  0  0  0
   -2.0249   -6.1124   -1.7178 N   0  0  0  0  0  0  0  0  0  0  0  0
   -1.7783   -6.1247    0.6463 N   0  0  0  0  0  0  0  0  0  0  0  0
   -1.1234   -6.3688    1.7760 C   0  0  0  0  0  0  0  0  0  0  0  0
    8.3090    4.8816    0.8421 H   0  0  0  0  0  0  0  0  0  0  0  0
    6.3516    4.1813   -0.6734 H   0  0  0  0  0  0  0  0  0  0  0  0
    7.8563    3.2781   -0.4927 H   0  0  0  0  0  0  0  0  0  0  0  0
    6.0847    1.7718   -0.0505 H   0  0  0  0  0  0  0  0  0  0  0  0
    4.7474    4.1162    1.2035 H   0  0  0  0  0  0  0  0  0  0  0  0
    5.4007    3.4831    3.3062 H   0  0  0  0  0  0  0  0  0  0  0  0
    3.9089    2.5021    3.1207 H   0  0  0  0  0  0  0  0  0  0  0  0
    5.2708    0.6818    2.1422 H   0  0  0  0  0  0  0  0  0  0  0  0
    7.9335    0.1727    8.3256 H   0  0  0  0  0  0  0  0  0  0  0  0
    7.7495   -1.5073    7.8157 H   0  0  0  0  0  0  0  0  0  0  0  0
    8.8995   -0.7358    5.1966 H   0  0  0  0  0  0  0  0  0  0  0  0
    8.0004    0.2077    3.0449 H   0  0  0  0  0  0  0  0  0  0  0  0
    1.4244    5.3357   -0.7976 H   0  0  0  0  0  0  0  0  0  0  0  0
   -0.0195    4.2805   -0.6693 H   0  0  0  0  0  0  0  0  0  0  0  0
    0.0207    5.4774   -2.7969 H   0  0  0  0  0  0  0  0  0  0  0  0
   -1.0024    3.2337   -3.0593 H   0  0  0  0  0  0  0  0  0  0  0  0
   -0.6012    4.5955   -4.8743 H   0  0  0  0  0  0  0  0  0  0  0  0
    0.1253    2.9465   -5.3440 H   0  0  0  0  0  0  0  0  0  0  0  0
    2.3510    3.7413   -5.0579 H   0  0  0  0  0  0  0  0  0  0  0  0
    3.1020    6.7899   -4.0842 H   0  0  0  0  0  0  0  0  0  0  0  0
   -0.6473    5.1889  -10.5331 H   0  0  0  0  0  0  0  0  0  0  0  0
   -1.6092    4.7205   -9.0281 H   0  0  0  0  0  0  0  0  0  0  0  0
    0.1217    4.4601   -7.2138 H   0  0  0  0  0  0  0  0  0  0  0  0
    2.7021    0.7240   -2.1081 H   0  0  0  0  0  0  0  0  0  0  0  0
    1.8967    0.6116   -0.5178 H   0  0  0  0  0  0  0  0  0  0  0  0
    2.9036   -1.8937   -1.9599 H   0  0  0  0  0  0  0  0  0  0  0  0
    1.3790   -2.4850   -0.1907 H   0  0  0  0  0  0  0  0  0  0  0  0
    3.3513   -2.8896    1.5800 H   0  0  0  0  0  0  0  0  0  0  0  0
    3.3585   -3.7490    0.0343 H   0  0  0  0  0  0  0  0  0  0  0  0
    5.0270   -1.4988    1.0107 H   0  0  0  0  0  0  0  0  0  0  0  0
    8.9293   -2.8619   -0.6893 H   0  0  0  0  0  0  0  0  0  0  0  0
    5.1033   -5.9793   -2.6945 H   0  0  0  0  0  0  0  0  0  0  0  0
    5.7867   -5.0172   -4.0507 H   0  0  0  0  0  0  0  0  0  0  0  0
    6.8498   -6.1363   -3.1522 H   0  0  0  0  0  0  0  0  0  0  0  0
    4.3671   -3.8865   -1.7305 H   0  0  0  0  0  0  0  0  0  0  0  0
   -2.1930   -0.5128    2.4485 H   0  0  0  0  0  0  0  0  0  0  0  0
   -1.0807    0.7078    3.1878 H   0  0  0  0  0  0  0  0  0  0  0  0
   -2.8383    1.1484    0.7224 H   0  0  0  0  0  0  0  0  0  0  0  0
   -4.3225    2.3870    2.0658 H   0  0  0  0  0  0  0  0  0  0  0  0
   -2.2301    2.6262    4.2700 H   0  0  0  0  0  0  0  0  0  0  0  0
   -3.5192    3.7885    3.7036 H   0  0  0  0  0  0  0  0  0  0  0  0
   -0.8987    3.9784    2.8443 H   0  0  0  0  0  0  0  0  0  0  0  0
   -3.6952    3.6223    0.1133 H   0  0  0  0  0  0  0  0  0  0  0  0
   -3.7219    8.5991   -1.1286 H   0  0  0  0  0  0  0  0  0  0  0  0
   -4.6436    9.2717    0.2449 H   0  0  0  0  0  0  0  0  0  0  0  0
   -0.9473    8.5830    3.3516 H   0  0  0  0  0  0  0  0  0  0  0  0
   -7.6965    0.7358    1.5165 H   0  0  0  0  0  0  0  0  0  0  0  0
   -6.3101    1.7785    0.8654 H   0  0  0  0  0  0  0  0  0  0  0  0
   -7.7578    0.8605   -0.9457 H   0  0  0  0  0  0  0  0  0  0  0  0
   -8.4293   -1.4079   -0.2224 H   0  0  0  0  0  0  0  0  0  0  0  0
   -6.7742   -2.4923   -2.1002 H   0  0  0  0  0  0  0  0  0  0  0  0
   -8.1027   -1.3505   -2.5284 H   0  0  0  0  0  0  0  0  0  0  0  0
   -6.5141    0.3142   -3.0663 H   0  0  0  0  0  0  0  0  0  0  0  0
   -1.5302   -4.1642   -4.2618 H   0  0  0  0  0  0  0  0  0  0  0  0
   -0.7254   -2.5296   -4.4734 H   0  0  0  0  0  0  0  0  0  0  0  0
   -1.7319   -1.7679   -1.9620 H   0  0  0  0  0  0  0  0  0  0  0  0
   -3.7606   -0.5498   -1.1082 H   0  0  0  0  0  0  0  0  0  0  0  0
   -4.9908   -2.4650    2.9702 H   0  0  0  0  0  0  0  0  0  0  0  0
   -6.2485   -3.4106    3.7628 H   0  0  0  0  0  0  0  0  0  0  0  0
   -4.0712   -4.0312    4.7185 H   0  0  0  0  0  0  0  0  0  0  0  0
   -5.4452   -5.8680    4.8774 H   0  0  0  0  0  0  0  0  0  0  0  0
   -6.6403   -6.4966    3.2368 H   0  0  0  0  0  0  0  0  0  0  0  0
   -3.7498   -7.3437    2.9995 H   0  0  0  0  0  0  0  0  0  0  0  0
   -3.5423   -7.2025    4.8156 H   0  0  0  0  0  0  0  0  0  0  0  0
   -2.3091   -5.1644    4.6337 H   0  0  0  0  0  0  0  0  0  0  0  0
   -0.2638   -6.6321    4.8365 H   0  0  0  0  0  0  0  0  0  0  0  0
   -2.0295   -6.8045   -2.5217 H   0  0  0  0  0  0  0  0  0  0  0  0
   -2.5897   -5.2426   -1.8446 H   0  0  0  0  0  0  0  0  0  0  0  0
   -2.7248   -5.7002    0.7140 H   0  0  0  0  0  0  0  0  0  0  0  0
  1  2  1  0
  1121  1  0
  2  3  1  0
  2122  1  0
  2123  1  0
  3  4  1  0
  3  5  1  0
  3124  1  0
  4  8  1  0
  5  7  1  0
  5  6  1  0
  5125  1  0
  6 17  1  0
  7  8  1  0
  7126  1  0
  7127  1  0
  8  9  1  0
  8128  1  0
  9 16  1  0
  9 10  1  0
 10 12  1  0
 10 11  2  0
 12 13  2  0
 13 15  1  0
 13 14  1  0
 14129  1  0
 14130  1  0
 15 16  2  0
 15131  1  0
 16132  1  0
 17 20  1  0
 17 19  2  0
 17 18  1  0
 20 21  1  0
 21 22  1  0
 21133  1  0
 21134  1  0
 22 24  1  0
 22 23  1  0
 22135  1  0
 23 27  1  0
 24 25  1  0
 24 26  1  0
 24136  1  0
 25 39  1  0
 26 27  1  0
 26137  1  0
 26138  1  0
 27 28  1  0
 27139  1  0
 28 38  1  0
 28 29  1  0
 29 30  2  0
 29140  1  0
 30 31  1  0
 31 32  1  0
 31 38  2  0
 32 33  2  0
 32 34  1  0
 34 35  2  0
 35 36  1  0
 35 37  1  0
 36141  1  0
 36142  1  0
 37 38  1  0
 37143  1  0
 39 41  2  0
 39 42  1  0
 39 40  1  0
 42 43  1  0
 43 44  1  0
 43144  1  0
 43145  1  0
 44 46  1  0
 44 45  1  0
 44146  1  0
 45 49  1  0
 46 48  1  0
 46 47  1  0
 46147  1  0
 47 59  1  0
 48 49  1  0
 48148  1  0
 48149  1  0
 49 50  1  0
 49150  1  0
 50 51  1  0
 50 58  1  0
 51 53  1  0
 51 52  2  0
 53 54  1  0
 53151  1  0
 54 55  2  0
 54 56  1  0
 56 57  1  0
 56 58  2  0
 57152  1  0
 57153  1  0
 57154  1  0
 58155  1  0
 59 61  2  0
 59 62  1  0
 59 60  1  0
 62 63  1  0
 63 64  1  0
 63156  1  0
 63157  1  0
 64 66  1  0
 64 65  1  0
 64158  1  0
 65 69  1  0
 66 68  1  0
 66 67  1  0
 66159  1  0
 67 80  1  0
 68 69  1  0
 68160  1  0
 68161  1  0
 69 70  1  0
 69162  1  0
 70 79  1  0
 70 71  1  0
 71 72  2  0
 71163  1  0
 72 73  1  0
 73 79  2  0
 73 74  1  0
 74 76  2  0
 74 75  1  0
 75164  1  0
 75165  1  0
 76 77  1  0
 77 78  2  0
 77166  1  0
 78 79  1  0
 80 83  1  0
 80 82  2  0
 80 81  1  0
 83 84  1  0
 84 85  1  0
 84167  1  0
 84168  1  0
 85 87  1  0
 85 86  1  0
 85169  1  0
 86 90  1  0
 87 88  1  0
 87 89  1  0
 87170  1  0
 88 99  1  0
 89 90  1  0
 89171  1  0
 89172  1  0
 90 91  1  0
 90173  1  0
 91 98  1  0
 91 92  1  0
 92 93  2  0
 92 94  1  0
 94 95  2  0
 95 97  1  0
 95 96  1  0
 96174  1  0
 96175  1  0
 97 98  2  0
 97176  1  0
 98177  1  0
 99100  2  0
 99101  1  0
 99102  1  0
102103  1  0
103104  1  0
103178  1  0
103179  1  0
104105  1  0
104106  1  0
104180  1  0
105109  1  0
106108  1  0
106107  1  0
106181  1  0
107182  1  0
108109  1  0
108183  1  0
108184  1  0
109110  1  0
109185  1  0
110111  1  0
110120  1  0
111112  2  0
111186  1  0
112113  1  0
113114  1  0
113120  2  0
114115  2  0
114116  1  0
116117  2  0
117118  1  0
117119  1  0
118187  1  0
118188  1  0
119120  1  0
119189  1  0
M  CHG  5  18  -1  40  -1  60  -1  81  -1 101  -1
M  END
$$$$
DNA (5'-D(*CP*GP*TP*AP*CP*G)-3')
     RDKit          3D

189203  0  0  0  0  0  0  0  0999 V2000
   -6.1391    6.9070    3.1179 O   0  0  0  0  0  0  0  0  0  0  0  0
   -7.4361    6.3556    3.0758 C   0  0  0  0  0  0  0  0  0  0  0  0
   -7.4090    4.8637    2.7708 C   0  0  0  0  0  0  0  0  0  0  0  0
   -8.6649    4.3399    2.7250 O   0  0  0  0  0  0  0  0  0  0  0  0
   -6.7979    4.6639    1.3993 C   0  0  0  0  0  0  0  0  0  0  0  0
   -6.1060    3.5167    1.2576 O   0  0  0  0  0  0  0  0  0  0  0  0
   -8.0174    4.7847    0.5174 C   0  0  0  0  0  0  0  0  0  0  0  0
   -9.0488    4.1293    1.4272 C   0  0  0  0  0  0  0  0  0  0  0  0
   -9.1183    2.7126    1.0929 N   0  0  0  0  0  0  0  0  0  0  0  0
   -8.7843    1.7888    2.0216 C   0  0  0  0  0  0  0  0  0  0  0  0
   -8.4111    2.0931    3.1899 O   0  0  0  0  0  0  0  0  0  0  0  0
   -8.8419    0.4647    1.7142 N   0  0  0  0  0  0  0  0  0  0  0  0
   -9.2230    0.0371    0.5070 C   0  0  0  0  0  0  0  0  0  0  0  0
   -9.2952   -1.3361    0.1333 N   0  0  0  0  0  0  0  0  0  0  0  0
   -9.5623    0.9824   -0.4339 C   0  0  0  0  0  0  0  0  0  0  0  0
   -9.5054    2.3288   -0.1252 C   0  0  0  0  0  0  0  0  0  0  0  0
   -4.4976    3.5966    0.8553 P   0  0  0  0  0  0  0  0  0  0  0  0
   -4.0874    4.9180   -0.1171 O   0  0  0  0  0  0  0  0  0  0  0  0
   -3.7482    3.8120    2.1796 O   0  0  0  0  0  0  0  0  0  0  0  0
   -3.9002    2.1557    0.2236 O   0  0  0  0  0  0  0  0  0  0  0  0
   -2.6277    1.9292    0.6810 C   0  0  0  0  0  0  0  0  0  0  0  0
   -2.0701    0.5708    0.3124 C   0  0  0  0  0  0  0  0  0  0  0  0
   -2.8200   -0.4460    0.8031 O   0  0  0  0  0  0  0  0  0  0  0  0
   -1.9087    0.4240   -1.1876 C   0  0  0  0  0  0  0  0  0  0  0  0
   -0.6456   -0.1043   -1.4437 O   0  0  0  0  0  0  0  0  0  0  0  0
   -2.9872   -0.6376   -1.4420 C   0  0  0  0  0  0  0  0  0  0  0  0
   -2.8158   -1.4410   -0.1494 C   0  0  0  0  0  0  0  0  0  0  0  0
   -3.8716   -2.4113    0.0157 N   0  0  0  0  0  0  0  0  0  0  0  0
   -4.9731   -2.6072   -0.7192 C   0  0  0  0  0  0  0  0  0  0  0  0
   -5.6919   -3.6276   -0.2088 N   0  0  0  0  0  0  0  0  0  0  0  0
   -5.0289   -4.0885    0.8758 C   0  0  0  0  0  0  0  0  0  0  0  0
   -5.2409   -5.0870    1.8016 C   0  0  0  0  0  0  0  0  0  0  0  0
   -6.2659   -5.8115    1.7239 O   0  0  0  0  0  0  0  0  0  0  0  0
   -4.3963   -5.3459    2.8205 N   0  0  0  0  0  0  0  0  0  0  0  0
   -3.2786   -4.5732    2.9302 C   0  0  0  0  0  0  0  0  0  0  0  0
   -2.3270   -4.7908    3.9835 N   0  0  0  0  0  0  0  0  0  0  0  0
   -3.0769   -3.6050    2.0308 N   0  0  0  0  0  0  0  0  0  0  0  0
   -3.8943   -3.3243    1.0096 C   0  0  0  0  0  0  0  0  0  0  0  0
    0.2759    0.9334   -2.4154 P   0  0  0  0  0  0  0  0  0  0  0  0
   -0.4411    2.4589   -2.3673 O   0  0  0  0  0  0  0  0  0  0  0  0
    0.3518    0.3546   -3.7878 O   0  0  0  0  0  0  0  0  0  0  0  0
    1.8487    1.0862   -1.8147 O   0  0  0  0  0  0  0  0  0  0  0  0
    2.7796    1.3073   -2.8082 C   0  0  0  0  0  0  0  0  0  0  0  0
    4.1470    1.1815   -2.2204 C   0  0  0  0  0  0  0  0  0  0  0  0
    5.1367    1.3825   -3.1733 O   0  0  0  0  0  0  0  0  0  0  0  0
    4.3805    2.1719   -1.1298 C   0  0  0  0  0  0  0  0  0  0  0  0
    3.8265    3.4019   -1.4386 O   0  0  0  0  0  0  0  0  0  0  0  0
    5.8919    2.3149   -1.1728 C   0  0  0  0  0  0  0  0  0  0  0  0
    6.2832    1.7433   -2.4836 C   0  0  0  0  0  0  0  0  0  0  0  0
    7.1384    0.5599   -2.3499 N   0  0  0  0  0  0  0  0  0  0  0  0
    8.3015    0.5968   -1.6460 C   0  0  0  0  0  0  0  0  0  0  0  0
    8.6535    1.6737   -1.0904 O   0  0  0  0  0  0  0  0  0  0  0  0
    9.0798   -0.5116   -1.5409 N   0  0  0  0  0  0  0  0  0  0  0  0
    8.7463   -1.6769   -2.1163 C   0  0  0  0  0  0  0  0  0  0  0  0
    9.4646   -2.7230   -2.0253 O   0  0  0  0  0  0  0  0  0  0  0  0
    7.5751   -1.7493   -2.8365 C   0  0  0  0  0  0  0  0  0  0  0  0
    7.1530   -3.0179   -3.4968 C   0  0  0  0  0  0  0  0  0  0  0  0
    6.8037   -0.6042   -2.9249 C   0  0  0  0  0  0  0  0  0  0  0  0
    2.8937    4.0868   -0.2486 P   0  0  0  0  0  0  0  0  0  0  0  0
    1.7092    5.0446   -1.0372 O   0  0  0  0  0  0  0  0  0  0  0  0
    3.6853    5.0561    0.5964 O   0  0  0  0  0  0  0  0  0  0  0  0
    2.0696    2.9625    0.6649 O   0  0  0  0  0  0  0  0  0  0  0  0
    2.4966    2.9414    2.0139 C   0  0  0  0  0  0  0  0  0  0  0  0
    1.7733    1.8649    2.7745 C   0  0  0  0  0  0  0  0  0  0  0  0
    0.4108    2.0219    2.8711 O   0  0  0  0  0  0  0  0  0  0  0  0
    2.3701    1.4847    4.0621 C   0  0  0  0  0  0  0  0  0  0  0  0
    3.4284    0.6340    3.9962 O   0  0  0  0  0  0  0  0  0  0  0  0
    1.1576    0.9319    4.8227 C   0  0  0  0  0  0  0  0  0  0  0  0
    0.0070    1.6233    4.1229 C   0  0  0  0  0  0  0  0  0  0  0  0
   -1.1955    0.8392    4.1663 N   0  0  0  0  0  0  0  0  0  0  0  0
   -1.2283   -0.4764    3.8131 C   0  0  0  0  0  0  0  0  0  0  0  0
   -2.4926   -0.9131    3.9838 N   0  0  0  0  0  0  0  0  0  0  0  0
   -3.2590    0.0724    4.4303 C   0  0  0  0  0  0  0  0  0  0  0  0
   -4.5897    0.1583    4.7582 C   0  0  0  0  0  0  0  0  0  0  0  0
   -5.4141   -0.9935    4.6385 N   0  0  0  0  0  0  0  0  0  0  0  0
   -5.0599    1.3548    5.1925 N   0  0  0  0  0  0  0  0  0  0  0  0
   -4.2733    2.4378    5.3094 C   0  0  0  0  0  0  0  0  0  0  0  0
   -2.9449    2.3769    4.9889 N   0  0  0  0  0  0  0  0  0  0  0  0
   -2.4430    1.1815    4.5457 C   0  0  0  0  0  0  0  0  0  0  0  0
    3.2320   -0.9463    4.4824 P   0  0  0  0  0  0  0  0  0  0  0  0
    4.7952   -1.6593    4.4369 O   0  0  0  0  0  0  0  0  0  0  0  0
    2.7851   -1.1558    5.9008 O   0  0  0  0  0  0  0  0  0  0  0  0
    2.2986   -1.8189    3.3671 O   0  0  0  0  0  0  0  0  0  0  0  0
    2.8402   -3.0098    2.9472 C   0  0  0  0  0  0  0  0  0  0  0  0
    2.5733   -3.2236    1.4783 C   0  0  0  0  0  0  0  0  0  0  0  0
    3.1713   -2.2557    0.6713 O   0  0  0  0  0  0  0  0  0  0  0  0
    3.0800   -4.5161    0.9136 C   0  0  0  0  0  0  0  0  0  0  0  0
    2.5303   -4.6105   -0.3745 O   0  0  0  0  0  0  0  0  0  0  0  0
    4.5680   -4.1441    0.8024 C   0  0  0  0  0  0  0  0  0  0  0  0
    4.4703   -2.7023    0.4166 C   0  0  0  0  0  0  0  0  0  0  0  0
    5.4723   -1.8744    1.1031 N   0  0  0  0  0  0  0  0  0  0  0  0
    6.6690   -2.3783    1.4418 C   0  0  0  0  0  0  0  0  0  0  0  0
    7.0292   -3.5507    1.2032 O   0  0  0  0  0  0  0  0  0  0  0  0
    7.5718   -1.5978    2.0854 N   0  0  0  0  0  0  0  0  0  0  0  0
    7.3152   -0.3177    2.4048 C   0  0  0  0  0  0  0  0  0  0  0  0
    8.3142    0.4568    3.0845 N   0  0  0  0  0  0  0  0  0  0  0  0
    6.1030    0.2228    2.0718 C   0  0  0  0  0  0  0  0  0  0  0  0
    5.1988   -0.5798    1.4194 C   0  0  0  0  0  0  0  0  0  0  0  0
    1.7528   -6.0639   -0.6235 P   0  0  0  0  0  0  0  0  0  0  0  0
    0.5956   -6.2682    0.3189 O   0  0  0  0  0  0  0  0  0  0  0  0
    2.8266   -7.3857   -0.4127 O   0  0  0  0  0  0  0  0  0  0  0  0
    1.2033   -6.1644   -2.2061 O   0  0  0  0  0  0  0  0  0  0  0  0
    1.5900   -5.1460   -3.0312 C   0  0  0  0  0  0  0  0  0  0  0  0
    1.0559   -5.2992   -4.4448 C   0  0  0  0  0  0  0  0  0  0  0  0
    1.4705   -4.2654   -5.2342 O   0  0  0  0  0  0  0  0  0  0  0  0
   -0.4268   -5.4095   -4.5233 C   0  0  0  0  0  0  0  0  0  0  0  0
   -1.0590   -4.8008   -3.4231 O   0  0  0  0  0  0  0  0  0  0  0  0
   -0.7264   -4.5221   -5.7285 C   0  0  0  0  0  0  0  0  0  0  0  0
    0.3789   -3.5005   -5.5726 C   0  0  0  0  0  0  0  0  0  0  0  0
    0.5923   -2.7608   -6.8030 N   0  0  0  0  0  0  0  0  0  0  0  0
    1.5432   -3.0655   -7.7299 C   0  0  0  0  0  0  0  0  0  0  0  0
    1.4604   -2.1722   -8.7292 N   0  0  0  0  0  0  0  0  0  0  0  0
    0.4820   -1.3049   -8.4615 C   0  0  0  0  0  0  0  0  0  0  0  0
   -0.0260   -0.2021   -9.1360 C   0  0  0  0  0  0  0  0  0  0  0  0
    0.5203    0.0703  -10.2324 O   0  0  0  0  0  0  0  0  0  0  0  0
   -1.0359    0.4809   -8.5925 N   0  0  0  0  0  0  0  0  0  0  0  0
   -1.5702    0.1208   -7.4078 C   0  0  0  0  0  0  0  0  0  0  0  0
   -2.6479    0.9126   -6.8924 N   0  0  0  0  0  0  0  0  0  0  0  0
   -1.1077   -0.9579   -6.7063 N   0  0  0  0  0  0  0  0  0  0  0  0
   -0.0717   -1.6720   -7.2455 C   0  0  0  0  0  0  0  0  0  0  0  0
   -5.7085    6.7456    3.9959 H   0  0  0  0  0  0  0  0  0  0  0  0
   -7.8850    6.5690    4.0510 H   0  0  0  0  0  0  0  0  0  0  0  0
   -7.9844    6.8674    2.2906 H   0  0  0  0  0  0  0  0  0  0  0  0
   -6.7470    4.4206    3.5254 H   0  0  0  0  0  0  0  0  0  0  0  0
   -6.1444    5.5290    1.2010 H   0  0  0  0  0  0  0  0  0  0  0  0
   -7.9191    4.3292   -0.4554 H   0  0  0  0  0  0  0  0  0  0  0  0
   -8.3395    5.8411    0.3872 H   0  0  0  0  0  0  0  0  0  0  0  0
  -10.0638    4.5445    1.2820 H   0  0  0  0  0  0  0  0  0  0  0  0
   -8.9179   -1.5649   -0.8154 H   0  0  0  0  0  0  0  0  0  0  0  0
   -9.6829   -2.0883    0.7206 H   0  0  0  0  0  0  0  0  0  0  0  0
   -9.8826    0.6757   -1.4410 H   0  0  0  0  0  0  0  0  0  0  0  0
   -9.7953    3.0143   -0.9163 H   0  0  0  0  0  0  0  0  0  0  0  0
   -1.9244    2.7007    0.2776 H   0  0  0  0  0  0  0  0  0  0  0  0
   -2.5999    2.0120    1.7791 H   0  0  0  0  0  0  0  0  0  0  0  0
   -1.0655    0.5296    0.7870 H   0  0  0  0  0  0  0  0  0  0  0  0
   -2.1158    1.3459   -1.7286 H   0  0  0  0  0  0  0  0  0  0  0  0
   -3.9729   -0.1561   -1.4899 H   0  0  0  0  0  0  0  0  0  0  0  0
   -2.7762   -1.2863   -2.2796 H   0  0  0  0  0  0  0  0  0  0  0  0
   -1.8197   -1.9205   -0.2050 H   0  0  0  0  0  0  0  0  0  0  0  0
   -5.2794   -2.0568   -1.6097 H   0  0  0  0  0  0  0  0  0  0  0  0
   -1.3372   -4.8341    3.7179 H   0  0  0  0  0  0  0  0  0  0  0  0
   -2.6437   -4.9009    4.9721 H   0  0  0  0  0  0  0  0  0  0  0  0
   -2.1904   -3.0315    2.1638 H   0  0  0  0  0  0  0  0  0  0  0  0
    2.6756    0.5339   -3.6093 H   0  0  0  0  0  0  0  0  0  0  0  0
    2.6113    2.3262   -3.1905 H   0  0  0  0  0  0  0  0  0  0  0  0
    4.2857    0.1290   -1.8331 H   0  0  0  0  0  0  0  0  0  0  0  0
    4.0471    1.7993   -0.1399 H   0  0  0  0  0  0  0  0  0  0  0  0
    6.1612    3.3978   -1.1405 H   0  0  0  0  0  0  0  0  0  0  0  0
    6.3826    1.8615   -0.3028 H   0  0  0  0  0  0  0  0  0  0  0  0
    6.8597    2.4631   -3.0863 H   0  0  0  0  0  0  0  0  0  0  0  0
    9.9725   -0.4805   -0.9986 H   0  0  0  0  0  0  0  0  0  0  0  0
    6.9739   -3.7773   -2.7075 H   0  0  0  0  0  0  0  0  0  0  0  0
    6.2250   -2.8428   -4.0793 H   0  0  0  0  0  0  0  0  0  0  0  0
    7.9379   -3.4270   -4.1436 H   0  0  0  0  0  0  0  0  0  0  0  0
    5.8703   -0.6657   -3.5050 H   0  0  0  0  0  0  0  0  0  0  0  0
    3.5769    2.7027    1.9878 H   0  0  0  0  0  0  0  0  0  0  0  0
    2.3531    3.9585    2.4403 H   0  0  0  0  0  0  0  0  0  0  0  0
    1.8869    0.9462    2.1024 H   0  0  0  0  0  0  0  0  0  0  0  0
    2.6514    2.3609    4.6737 H   0  0  0  0  0  0  0  0  0  0  0  0
    1.2049    1.1808    5.8995 H   0  0  0  0  0  0  0  0  0  0  0  0
    1.1582   -0.1408    4.7103 H   0  0  0  0  0  0  0  0  0  0  0  0
   -0.2143    2.5564    4.7117 H   0  0  0  0  0  0  0  0  0  0  0  0
   -0.3820   -1.0361    3.4655 H   0  0  0  0  0  0  0  0  0  0  0  0
   -5.9185   -1.4333    5.4578 H   0  0  0  0  0  0  0  0  0  0  0  0
   -5.4952   -1.3934    3.6600 H   0  0  0  0  0  0  0  0  0  0  0  0
   -4.7162    3.3795    5.6668 H   0  0  0  0  0  0  0  0  0  0  0  0
    3.9216   -3.1273    3.2072 H   0  0  0  0  0  0  0  0  0  0  0  0
    2.3019   -3.8263    3.4826 H   0  0  0  0  0  0  0  0  0  0  0  0
    1.4780   -3.1233    1.3593 H   0  0  0  0  0  0  0  0  0  0  0  0
    2.9258   -5.4017    1.5272 H   0  0  0  0  0  0  0  0  0  0  0  0
    5.0826   -4.7796    0.0847 H   0  0  0  0  0  0  0  0  0  0  0  0
    4.9425   -4.2492    1.8539 H   0  0  0  0  0  0  0  0  0  0  0  0
    4.6069   -2.6627   -0.6866 H   0  0  0  0  0  0  0  0  0  0  0  0
    8.2208    1.5094    3.0430 H   0  0  0  0  0  0  0  0  0  0  0  0
    9.0683   -0.0349    3.5730 H   0  0  0  0  0  0  0  0  0  0  0  0
    5.8157    1.2324    2.2804 H   0  0  0  0  0  0  0  0  0  0  0  0
    4.2219   -0.2321    1.1140 H   0  0  0  0  0  0  0  0  0  0  0  0
    2.6984   -5.1675   -3.1351 H   0  0  0  0  0  0  0  0  0  0  0  0
    1.3047   -4.1437   -2.6995 H   0  0  0  0  0  0  0  0  0  0  0  0
    1.4632   -6.2791   -4.8309 H   0  0  0  0  0  0  0  0  0  0  0  0
   -0.8033   -6.4351   -4.6842 H   0  0  0  0  0  0  0  0  0  0  0  0
   -1.7799   -4.1782   -3.7086 H   0  0  0  0  0  0  0  0  0  0  0  0
   -0.6152   -5.0702   -6.6812 H   0  0  0  0  0  0  0  0  0  0  0  0
   -1.7414   -4.0712   -5.6529 H   0  0  0  0  0  0  0  0  0  0  0  0
    0.1316   -2.8549   -4.7053 H   0  0  0  0  0  0  0  0  0  0  0  0
    2.2638   -3.8661   -7.7210 H   0  0  0  0  0  0  0  0  0  0  0  0
   -2.4633    1.7977   -6.3682 H   0  0  0  0  0  0  0  0  0  0  0  0
   -3.6214    0.5654   -7.0725 H   0  0  0  0  0  0  0  0  0  0  0  0
   -1.5214   -1.2379   -5.7944 H   0  0  0  0  0  0  0  0  0  0  0  0
  1  2  1  0
  1121  1  0
  2  3  1  0
  2122  1  0
  2123  1  0
  3  4  1  0
  3  5  1  0
  3124  1  0
  4  8  1  0
  5  7  1  0
  5  6  1  0
  5125  1  0
  6 17  1  0
  7  8  1  0
  7126  1  0
  7127  1  0
  8  9  1  0
  8128  1  0
  9 16  1  0
  9 10  1  0
 10 12  1  0
 10 11  2  0
 12 13  2  0
 13 15  1  0
 13 14  1  0
 14129  1  0
 14130  1  0
 15 16  2  0
 15131  1  0
 16132  1  0
 17 20  1  0
 17 19  2  0
 17 18  1  0
 20 21  1  0
 21 22  1  0
 21133  1  0
 21134  1  0
 22 24  1  0
 22 23  1  0
 22135  1  0
 23 27  1  0
 24 25  1  0
 24 26  1  0
 24136  1  0
 25 39  1  0
 26 27  1  0
 26137  1  0
 26138  1  0
 27 28  1  0
 27139  1  0
 28 38  1  0
 28 29  1  0
 29 30  2  0
 29140  1  0
 30 31  1  0
 31 32  1  0
 31 38  2  0
 32 33  2  0
 32 34  1  0
 34 35  2  0
 35 36  1  0
 35 37  1  0
 36141  1  0
 36142  1  0
 37 38  1  0
 37143  1  0
 39 41  2  0
 39 42  1  0
 39 40  1  0
 42 43  1  0
 43 44  1  0
 43144  1  0
 43145  1  0
 44 46  1  0
 44 45  1  0
 44146  1  0
 45 49  1  0
 46 48  1  0
 46 47  1  0
 46147  1  0
 47 59  1  0
 48 49  1  0
 48148  1  0
 48149  1  0
 49 50  1  0
 49150  1  0
 50 51  1  0
 50 58  1  0
 51 53  1  0
 51 52  2  0
 53 54  1  0
 53151  1  0
 54 55  2  0
 54 56  1  0
 56 57  1  0
 56 58  2  0
 57152  1  0
 57153  1  0
 57154  1  0
 58155  1  0
 59 61  2  0
 59 62  1  0
 59 60  1  0
 62 63  1  0
 63 64  1  0
 63156  1  0
 63157  1  0
 64 66  1  0
 64 65  1  0
 64158  1  0
 65 69  1  0
 66 68  1  0
 66 67  1  0
 66159  1  0
 67 80  1  0
 68 69  1  0
 68160  1  0
 68161  1  0
 69 70  1  0
 69162  1  0
 70 79  1  0
 70 71  1  0
 71 72  2  0
 71163  1  0
 72 73  1  0
 73 79  2  0
 73 74  1  0
 74 76  2  0
 74 75  1  0
 75164  1  0
 75165  1  0
 76 77  1  0
 77 78  2  0
 77166  1  0
 78 79  1  0
 80 83  1  0
 80 82  2  0
 80 81  1  0
 83 84  1  0
 84 85  1  0
 84167  1  0
 84168  1  0
 85 87  1  0
 85 86  1  0
 85169  1  0
 86 90  1  0
 87 88  1  0
 87 89  1  0
 87170  1  0
 88 99  1  0
 89 90  1  0
 89171  1  0
 89172  1  0
 90 91  1  0
 90173  1  0
 91 98  1  0
 91 92  1  0
 92 93  2  0
 92 94  1  0
 94 95  2  0
 95 97  1  0
 95 96  1  0
 96174  1  0
 96175  1  0
 97 98  2  0
 97176  1  0
 98177  1  0
 99100  2  0
 99101  1  0
 99102  1  0
102103  1  0
103104  1  0
103178  1  0
103179  1  0
104105  1  0
104106  1  0
104180  1  0
105109  1  0
106108  1  0
106107  1  0
106181  1  0
107182  1  0
108109  1  0
108183  1  0
108184  1  0
109110  1  0
109185  1  0
110111  1  0
110120  1  0
111112  2  0
111186  1  0
112113  1  0
113114  1  0
113120  2  0
114115  2  0
114116  1  0
116117  2  0
117118  1  0
117119  1  0
118187  1  0
118188  1  0
119120  1  0
119189  1  0
M  CHG  5  18  -1  40  -1  60  -1  81  -1 101  -1
M  END
$$$$
DNA (5'-D(*CP*GP*TP*AP*CP*G)-3')
     RDKit          3D

189203  0  0  0  0  0  0  0  0999 V2000
    7.6601    5.9569    1.7280 O   0  0  0  0  0  0  0  0  0  0  0  0
    6.3683    6.3429    1.9964 C   0  0  0  0  0  0  0  0  0  0  0  0
    5.9670    5.7873    3.3427 C   0  0  0  0  0  0  0  0  0  0  0  0
    4.6438    6.1769    3.6646 O   0  0  0  0  0  0  0  0  0  0  0  0
    5.8259    4.2897    3.3651 C   0  0  0  0  0  0  0  0  0  0  0  0
    7.0578    3.7084    3.5148 O   0  0  0  0  0  0  0  0  0  0  0  0
    4.9691    4.0977    4.6354 C   0  0  0  0  0  0  0  0  0  0  0  0
    4.4772    5.4799    4.8660 C   0  0  0  0  0  0  0  0  0  0  0  0
    3.1981    5.6287    5.4661 N   0  0  0  0  0  0  0  0  0  0  0  0
    2.9202    6.8432    6.0339 C   0  0  0  0  0  0  0  0  0  0  0  0
    3.7697    7.7830    6.0213 O   0  0  0  0  0  0  0  0  0  0  0  0
    1.7376    7.0889    6.6272 N   0  0  0  0  0  0  0  0  0  0  0  0
    0.7589    6.1750    6.7036 C   0  0  0  0  0  0  0  0  0  0  0  0
   -0.4919    6.4329    7.3278 N   0  0  0  0  0  0  0  0  0  0  0  0
    1.0029    4.9390    6.1415 C   0  0  0  0  0  0  0  0  0  0  0  0
    2.2308    4.7208    5.5396 C   0  0  0  0  0  0  0  0  0  0  0  0
    7.3056    2.4035    2.4711 P   0  0  0  0  0  0  0  0  0  0  0  0
    8.0193    2.9733    1.0544 O   0  0  0  0  0  0  0  0  0  0  0  0
    8.2973    1.4902    3.1696 O   0  0  0  0  0  0  0  0  0  0  0  0
    5.8865    1.6082    2.0941 O   0  0  0  0  0  0  0  0  0  0  0  0
    6.1794    0.4629    1.3746 C   0  0  0  0  0  0  0  0  0  0  0  0
    4.9179   -0.3368    1.1390 C   0  0  0  0  0  0  0  0  0  0  0  0
    4.3227   -0.7198    2.3370 O   0  0  0  0  0  0  0  0  0  0  0  0
    5.1609   -1.5744    0.3449 C   0  0  0  0  0  0  0  0  0  0  0  0
    3.9539   -1.9835   -0.2116 O   0  0  0  0  0  0  0  0  0  0  0  0
    5.4465   -2.5809    1.4594 C   0  0  0  0  0  0  0  0  0  0  0  0
    4.6812   -2.0103    2.6279 C   0  0  0  0  0  0  0  0  0  0  0  0
    5.3243   -2.1762    3.8953 N   0  0  0  0  0  0  0  0  0  0  0  0
    6.5989   -2.4650    4.1961 C   0  0  0  0  0  0  0  0  0  0  0  0
    6.7838   -2.5310    5.5278 N   0  0  0  0  0  0  0  0  0  0  0  0
    5.5930   -2.2759    6.0869 C   0  0  0  0  0  0  0  0  0  0  0  0
    5.1278   -2.1980    7.3914 C   0  0  0  0  0  0  0  0  0  0  0  0
    5.9682   -2.4010    8.3046 O   0  0  0  0  0  0  0  0  0  0  0  0
    3.8507   -1.9213    7.6977 N   0  0  0  0  0  0  0  0  0  0  0  0
    2.9830   -1.7096    6.6878 C   0  0  0  0  0  0  0  0  0  0  0  0
    1.6249   -1.4078    6.9360 N   0  0  0  0  0  0  0  0  0  0  0  0
    3.4186   -1.7816    5.4183 N   0  0  0  0  0  0  0  0  0  0  0  0
    4.6842   -2.0554    5.0761 C   0  0  0  0  0  0  0  0  0  0  0  0
    4.0257   -2.4109   -1.8192 P   0  0  0  0  0  0  0  0  0  0  0  0
    4.3460   -1.1371   -2.8583 O   0  0  0  0  0  0  0  0  0  0  0  0
    5.0883   -3.5040   -1.9408 O   0  0  0  0  0  0  0  0  0  0  0  0
    2.5230   -3.1494   -2.1886 O   0  0  0  0  0  0  0  0  0  0  0  0
    2.6654   -4.4861   -2.4391 C   0  0  0  0  0  0  0  0  0  0  0  0
    1.3264   -5.2206   -2.6133 C   0  0  0  0  0  0  0  0  0  0  0  0
    1.6635   -6.5294   -2.8466 O   0  0  0  0  0  0  0  0  0  0  0  0
    0.4850   -4.6858   -3.7063 C   0  0  0  0  0  0  0  0  0  0  0  0
   -0.7835   -4.3490   -3.2385 O   0  0  0  0  0  0  0  0  0  0  0  0
    0.4190   -5.8403   -4.6880 C   0  0  0  0  0  0  0  0  0  0  0  0
    1.1540   -6.9591   -4.0376 C   0  0  0  0  0  0  0  0  0  0  0  0
    0.3703   -8.1754   -3.9409 N   0  0  0  0  0  0  0  0  0  0  0  0
    0.8031   -9.3725   -4.3768 C   0  0  0  0  0  0  0  0  0  0  0  0
    1.9522   -9.4111   -4.8916 O   0  0  0  0  0  0  0  0  0  0  0  0
    0.0761  -10.4999   -4.2872 N   0  0  0  0  0  0  0  0  0  0  0  0
   -1.1417  -10.4002   -3.7292 C   0  0  0  0  0  0  0  0  0  0  0  0
   -1.8360  -11.4355   -3.6343 O   0  0  0  0  0  0  0  0  0  0  0  0
   -1.6138   -9.1823   -3.2716 C   0  0  0  0  0  0  0  0  0  0  0  0
   -2.9778   -9.0604   -2.6451 C   0  0  0  0  0  0  0  0  0  0  0  0
   -0.8493   -8.0582   -3.3788 C   0  0  0  0  0  0  0  0  0  0  0  0
   -1.2896   -2.8509   -3.8114 P   0  0  0  0  0  0  0  0  0  0  0  0
   -1.9548   -3.0005   -5.3827 O   0  0  0  0  0  0  0  0  0  0  0  0
   -0.1406   -1.8693   -3.9843 O   0  0  0  0  0  0  0  0  0  0  0  0
   -2.5093   -2.2472   -2.8161 O   0  0  0  0  0  0  0  0  0  0  0  0
   -3.5442   -1.8347   -3.5986 C   0  0  0  0  0  0  0  0  0  0  0  0
   -4.5130   -0.8629   -3.0748 C   0  0  0  0  0  0  0  0  0  0  0  0
   -5.4372   -0.6411   -4.1307 O   0  0  0  0  0  0  0  0  0  0  0  0
   -5.4393   -1.2723   -1.9971 C   0  0  0  0  0  0  0  0  0  0  0  0
   -4.9377   -1.6996   -0.8237 O   0  0  0  0  0  0  0  0  0  0  0  0
   -6.2585   -2.3297   -2.7507 C   0  0  0  0  0  0  0  0  0  0  0  0
   -6.3930   -1.6166   -4.0541 C   0  0  0  0  0  0  0  0  0  0  0  0
   -6.4976   -2.4835   -5.1900 N   0  0  0  0  0  0  0  0  0  0  0  0
   -6.4382   -2.0206   -6.4698 C   0  0  0  0  0  0  0  0  0  0  0  0
   -6.5720   -3.0827   -7.3097 N   0  0  0  0  0  0  0  0  0  0  0  0
   -6.7089   -4.1622   -6.5529 C   0  0  0  0  0  0  0  0  0  0  0  0
   -6.8796   -5.4948   -6.8828 C   0  0  0  0  0  0  0  0  0  0  0  0
   -6.9376   -5.9217   -8.2570 N   0  0  0  0  0  0  0  0  0  0  0  0
   -6.9973   -6.4035   -5.8690 N   0  0  0  0  0  0  0  0  0  0  0  0
   -6.9473   -6.0031   -4.5640 C   0  0  0  0  0  0  0  0  0  0  0  0
   -6.7801   -4.6995   -4.2367 N   0  0  0  0  0  0  0  0  0  0  0  0
   -6.6666   -3.8205   -5.2239 C   0  0  0  0  0  0  0  0  0  0  0  0
   -5.5632   -0.7483    0.4231 P   0  0  0  0  0  0  0  0  0  0  0  0
   -6.7041    0.3115   -0.2258 O   0  0  0  0  0  0  0  0  0  0  0  0
   -6.2745   -1.5707    1.4630 O   0  0  0  0  0  0  0  0  0  0  0  0
   -4.2906    0.1381    1.0497 O   0  0  0  0  0  0  0  0  0  0  0  0
   -3.9290   -0.1415    2.3356 C   0  0  0  0  0  0  0  0  0  0  0  0
   -2.5655    0.4555    2.5955 C   0  0  0  0  0  0  0  0  0  0  0  0
   -1.6873   -0.1306    1.6898 O   0  0  0  0  0  0  0  0  0  0  0  0
   -2.4915    1.9418    2.3491 C   0  0  0  0  0  0  0  0  0  0  0  0
   -2.8333    2.6613    3.4867 O   0  0  0  0  0  0  0  0  0  0  0  0
   -1.0137    2.0930    2.0333 C   0  0  0  0  0  0  0  0  0  0  0  0
   -0.6222    0.7286    1.5286 C   0  0  0  0  0  0  0  0  0  0  0  0
   -0.0782    0.7393    0.2082 N   0  0  0  0  0  0  0  0  0  0  0  0
   -0.7978    0.8055   -0.9271 C   0  0  0  0  0  0  0  0  0  0  0  0
   -2.0346    0.8604   -0.8491 O   0  0  0  0  0  0  0  0  0  0  0  0
   -0.2536    0.8170   -2.1547 N   0  0  0  0  0  0  0  0  0  0  0  0
    1.0705    0.7630   -2.3519 C   0  0  0  0  0  0  0  0  0  0  0  0
    1.5651    0.7760   -3.6648 N   0  0  0  0  0  0  0  0  0  0  0  0
    1.8610    0.6940   -1.2161 C   0  0  0  0  0  0  0  0  0  0  0  0
    1.2751    0.6836    0.0324 C   0  0  0  0  0  0  0  0  0  0  0  0
   -4.0611    3.7695    3.2648 P   0  0  0  0  0  0  0  0  0  0  0  0
   -5.3925    3.0413    3.4888 O   0  0  0  0  0  0  0  0  0  0  0  0
   -4.0277    5.0061    4.4170 O   0  0  0  0  0  0  0  0  0  0  0  0
   -4.1190    4.4688    1.7508 O   0  0  0  0  0  0  0  0  0  0  0  0
   -3.0182    5.2862    1.5552 C   0  0  0  0  0  0  0  0  0  0  0  0
   -2.9528    5.7925    0.1112 C   0  0  0  0  0  0  0  0  0  0  0  0
   -1.8694    6.5859   -0.1456 O   0  0  0  0  0  0  0  0  0  0  0  0
   -2.9646    4.6659   -0.8672 C   0  0  0  0  0  0  0  0  0  0  0  0
   -3.7250    5.0198   -1.9971 O   0  0  0  0  0  0  0  0  0  0  0  0
   -1.5113    4.7004   -1.3510 C   0  0  0  0  0  0  0  0  0  0  0  0
   -1.2407    6.1883   -1.3036 C   0  0  0  0  0  0  0  0  0  0  0  0
    0.2112    6.3210   -1.1127 N   0  0  0  0  0  0  0  0  0  0  0  0
    0.8204    6.8008   -0.0086 C   0  0  0  0  0  0  0  0  0  0  0  0
    2.1607    6.7823   -0.1603 N   0  0  0  0  0  0  0  0  0  0  0  0
    2.4032    6.2844   -1.3786 C   0  0  0  0  0  0  0  0  0  0  0  0
    3.5627    6.0312   -2.0801 C   0  0  0  0  0  0  0  0  0  0  0  0
    4.7004    6.2683   -1.6014 O   0  0  0  0  0  0  0  0  0  0  0  0
    3.5280    5.5108   -3.3286 N   0  0  0  0  0  0  0  0  0  0  0  0
    2.3227    5.2279   -3.9116 C   0  0  0  0  0  0  0  0  0  0  0  0
    2.3375    4.6831   -5.2208 N   0  0  0  0  0  0  0  0  0  0  0  0
    1.2009    5.4796   -3.2156 N   0  0  0  0  0  0  0  0  0  0  0  0
    1.1859    5.9932   -1.9790 C   0  0  0  0  0  0  0  0  0  0  0  0
    8.0005    6.5694    1.0207 H   0  0  0  0  0  0  0  0  0  0  0  0
    6.3678    7.4438    2.0936 H   0  0  0  0  0  0  0  0  0  0  0  0
    5.6341    6.1015    1.2083 H   0  0  0  0  0  0  0  0  0  0  0  0
    6.6629    6.0804    4.1300 H   0  0  0  0  0  0  0  0  0  0  0  0
    5.2613    3.8849    2.4923 H   0  0  0  0  0  0  0  0  0  0  0  0
    5.6862    3.7432    5.4195 H   0  0  0  0  0  0  0  0  0  0  0  0
    4.2271    3.3173    4.4886 H   0  0  0  0  0  0  0  0  0  0  0  0
    5.2201    5.9684    5.5662 H   0  0  0  0  0  0  0  0  0  0  0  0
   -0.5417    7.1739    8.0405 H   0  0  0  0  0  0  0  0  0  0  0  0
   -1.3199    5.8437    7.0236 H   0  0  0  0  0  0  0  0  0  0  0  0
    0.2602    4.1468    6.1636 H   0  0  0  0  0  0  0  0  0  0  0  0
    2.3826    3.7453    5.1094 H   0  0  0  0  0  0  0  0  0  0  0  0
    6.9988   -0.1202    1.7923 H   0  0  0  0  0  0  0  0  0  0  0  0
    6.5173    0.8192    0.3570 H   0  0  0  0  0  0  0  0  0  0  0  0
    4.2150    0.3513    0.6255 H   0  0  0  0  0  0  0  0  0  0  0  0
    5.9789   -1.5348   -0.3712 H   0  0  0  0  0  0  0  0  0  0  0  0
    6.5199   -2.6434    1.6612 H   0  0  0  0  0  0  0  0  0  0  0  0
    5.1010   -3.5911    1.1531 H   0  0  0  0  0  0  0  0  0  0  0  0
    3.7250   -2.6077    2.6905 H   0  0  0  0  0  0  0  0  0  0  0  0
    7.3935   -2.6280    3.4950 H   0  0  0  0  0  0  0  0  0  0  0  0
    1.0915   -1.7713    7.7694 H   0  0  0  0  0  0  0  0  0  0  0  0
    1.1109   -0.8002    6.2724 H   0  0  0  0  0  0  0  0  0  0  0  0
    2.7453   -1.6172    4.6512 H   0  0  0  0  0  0  0  0  0  0  0  0
    3.2892   -4.6612   -3.3518 H   0  0  0  0  0  0  0  0  0  0  0  0
    3.1611   -4.9810   -1.5771 H   0  0  0  0  0  0  0  0  0  0  0  0
    0.7881   -5.1300   -1.6402 H   0  0  0  0  0  0  0  0  0  0  0  0
    1.0002   -3.8532   -4.2221 H   0  0  0  0  0  0  0  0  0  0  0  0
    0.8471   -5.5543   -5.6706 H   0  0  0  0  0  0  0  0  0  0  0  0
   -0.6239   -6.1668   -4.8722 H   0  0  0  0  0  0  0  0  0  0  0  0
    2.0378   -7.2234   -4.6873 H   0  0  0  0  0  0  0  0  0  0  0  0
    0.4981  -11.3672   -4.6504 H   0  0  0  0  0  0  0  0  0  0  0  0
   -3.4399   -8.1275   -3.0234 H   0  0  0  0  0  0  0  0  0  0  0  0
   -3.5811   -9.9561   -2.8000 H   0  0  0  0  0  0  0  0  0  0  0  0
   -2.7704   -8.8717   -1.5536 H   0  0  0  0  0  0  0  0  0  0  0  0
   -1.2196   -7.1280   -3.0268 H   0  0  0  0  0  0  0  0  0  0  0  0
   -4.0412   -2.7522   -3.9979 H   0  0  0  0  0  0  0  0  0  0  0  0
   -3.0815   -1.3734   -4.5224 H   0  0  0  0  0  0  0  0  0  0  0  0
   -4.0272    0.0871   -2.7749 H   0  0  0  0  0  0  0  0  0  0  0  0
   -6.1787   -0.4186   -1.8893 H   0  0  0  0  0  0  0  0  0  0  0  0
   -5.6400   -3.2297   -2.7503 H   0  0  0  0  0  0  0  0  0  0  0  0
   -7.2367   -2.4725   -2.2344 H   0  0  0  0  0  0  0  0  0  0  0  0
   -7.3794   -1.0670   -4.0065 H   0  0  0  0  0  0  0  0  0  0  0  0
   -6.3071   -0.9954   -6.8069 H   0  0  0  0  0  0  0  0  0  0  0  0
   -6.1929   -6.5074   -8.6925 H   0  0  0  0  0  0  0  0  0  0  0  0
   -7.7918   -5.5915   -8.7795 H   0  0  0  0  0  0  0  0  0  0  0  0
   -7.0437   -6.7351   -3.7639 H   0  0  0  0  0  0  0  0  0  0  0  0
   -4.6517    0.4244    2.9940 H   0  0  0  0  0  0  0  0  0  0  0  0
   -3.9786   -1.1954    2.6209 H   0  0  0  0  0  0  0  0  0  0  0  0
   -2.3003    0.2264    3.6500 H   0  0  0  0  0  0  0  0  0  0  0  0
   -3.1525    2.2958    1.5444 H   0  0  0  0  0  0  0  0  0  0  0  0
   -0.7710    2.8913    1.3387 H   0  0  0  0  0  0  0  0  0  0  0  0
   -0.5293    2.3307    3.0032 H   0  0  0  0  0  0  0  0  0  0  0  0
    0.1719    0.3437    2.2128 H   0  0  0  0  0  0  0  0  0  0  0  0
    2.0738   -0.0836   -4.0081 H   0  0  0  0  0  0  0  0  0  0  0  0
    1.4327    1.6210   -4.2909 H   0  0  0  0  0  0  0  0  0  0  0  0
    2.9148    0.6514   -1.3476 H   0  0  0  0  0  0  0  0  0  0  0  0
    1.8661    0.6319    0.9372 H   0  0  0  0  0  0  0  0  0  0  0  0
   -2.0496    4.8266    1.8106 H   0  0  0  0  0  0  0  0  0  0  0  0
   -3.1472    6.1817    2.2349 H   0  0  0  0  0  0  0  0  0  0  0  0
   -3.8644    6.4366   -0.0420 H   0  0  0  0  0  0  0  0  0  0  0  0
   -3.2704    3.7013   -0.4697 H   0  0  0  0  0  0  0  0  0  0  0  0
   -3.3931    5.8588   -2.3863 H   0  0  0  0  0  0  0  0  0  0  0  0
   -0.8466    4.2407   -0.6189 H   0  0  0  0  0  0  0  0  0  0  0  0
   -1.4273    4.2694   -2.3646 H   0  0  0  0  0  0  0  0  0  0  0  0
   -1.5607    6.7127   -2.2064 H   0  0  0  0  0  0  0  0  0  0  0  0
    0.3079    7.1545    0.8819 H   0  0  0  0  0  0  0  0  0  0  0  0
    2.2439    3.6428   -5.4120 H   0  0  0  0  0  0  0  0  0  0  0  0
    2.4477    5.3088   -6.0697 H   0  0  0  0  0  0  0  0  0  0  0  0
    0.2958    5.2575   -3.6836 H   0  0  0  0  0  0  0  0  0  0  0  0
  1  2  1  0
  1121  1  0
  2  3  1  0
  2122  1  0
  2123  1  0
  3  4  1  0
  3  5  1  0
  3124  1  0
  4  8  1  0
  5  7  1  0
  5  6  1  0
  5125  1  0
  6 17  1  0
  7  8  1  0
  7126  1  0
  7127  1  0
  8  9  1  0
  8128  1  0
  9 16  1  0
  9 10  1  0
 10 12  1  0
 10 11  2  0
 12 13  2  0
 13 15  1  0
 13 14  1  0
 14129  1  0
 14130  1  0
 15 16  2  0
 15131  1  0
 16132  1  0
 17 20  1  0
 17 19  2  0
 17 18  1  0
 20 21  1  0
 21 22  1  0
 21133  1  0
 21134  1  0
 22 24  1  0
 22 23  1  0
 22135  1  0
 23 27  1  0
 24 25  1  0
 24 26  1  0
 24136  1  0
 25 39  1  0
 26 27  1  0
 26137  1  0
 26138  1  0
 27 28  1  0
 27139  1  0
 28 38  1  0
 28 29  1  0
 29 30  2  0
 29140  1  0
 30 31  1  0
 31 32  1  0
 31 38  2  0
 32 33  2  0
 32 34  1  0
 34 35  2  0
 35 36  1  0
 35 37  1  0
 36141  1  0
 36142  1  0
 37 38  1  0
 37143  1  0
 39 41  2  0
 39 42  1  0
 39 40  1  0
 42 43  1  0
 43 44  1  0
 43144  1  0
 43145  1  0
 44 46  1  0
 44 45  1  0
 44146  1  0
 45 49  1  0
 46 48  1  0
 46 47  1  0
 46147  1  0
 47 59  1  0
 48 49  1  0
 48148  1  0
 48149  1  0
 49 50  1  0
 49150  1  0
 50 51  1  0
 50 58  1  0
 51 53  1  0
 51 52  2  0
 53 54  1  0
 53151  1  0
 54 55  2  0
 54 56  1  0
 56 57  1  0
 56 58  2  0
 57152  1  0
 57153  1  0
 57154  1  0
 58155  1  0
 59 61  2  0
 59 62  1  0
 59 60  1  0
 62 63  1  0
 63 64  1  0
 63156  1  0
 63157  1  0
 64 66  1  0
 64 65  1  0
 64158  1  0
 65 69  1  0
 66 68  1  0
 66 67  1  0
 66159  1  0
 67 80  1  0
 68 69  1  0
 68160  1  0
 68161  1  0
 69 70  1  0
 69162  1  0
 70 79  1  0
 70 71  1  0
 71 72  2  0
 71163  1  0
 72 73  1  0
 73 79  2  0
 73 74  1  0
 74 76  2  0
 74 75  1  0
 75164  1  0
 75165  1  0
 76 77  1  0
 77 78  2  0
 77166  1  0
 78 79  1  0
 80 83  1  0
 80 82  2  0
 80 81  1  0
 83 84  1  0
 84 85  1  0
 84167  1  0
 84168  1  0
 85 87  1  0
 85 86  1  0
 85169  1  0
 86 90  1  0
 87 88  1  0
 87 89  1  0
 87170  1  0
 88 99  1  0
 89 90  1  0
 89171  1  0
 89172  1  0
 90 91  1  0
 90173  1  0
 91 98  1  0
 91 92  1  0
 92 93  2  0
 92 94  1  0
 94 95  2  0
 95 97  1  0
 95 96  1  0
 96174  1  0
 96175  1  0
 97 98  2  0
 97176  1  0
 98177  1  0
 99100  2  0
 99101  1  0
 99102  1  0
102103  1  0
103104  1  0
103178  1  0
103179  1  0
104105  1  0
104106  1  0
104180  1  0
105109  1  0
106108  1  0
106107  1  0
106181  1  0
107182  1  0
108109  1  0
108183  1  0
108184  1  0
109110  1  0
109185  1  0
110111  1  0
110120  1  0
111112  2  0
111186  1  0
112113  1  0
113114  1  0
113120  2  0
114115  2  0
114116  1  0
116117  2  0
117118  1  0
117119  1  0
118187  1  0
118188  1  0
119120  1  0
119189  1  0
M  CHG  5  18  -1  40  -1  60  -1  81  -1 101  -1
M  END
$$$$
DNA (5'-D(*CP*GP*TP*AP*CP*G)-3')
     RDKit          3D

189203  0  0  0  0  0  0  0  0999 V2000
   -1.2167   -7.9554   -1.9015 O   0  0  0  0  0  0  0  0  0  0  0  0
   -0.4213   -7.0354   -1.1892 C   0  0  0  0  0  0  0  0  0  0  0  0
   -0.9230   -5.6653   -1.5711 C   0  0  0  0  0  0  0  0  0  0  0  0
   -0.7548   -5.5884   -2.9744 O   0  0  0  0  0  0  0  0  0  0  0  0
    0.0341   -4.5792   -1.0580 C   0  0  0  0  0  0  0  0  0  0  0  0
   -0.2902   -4.1231    0.1941 O   0  0  0  0  0  0  0  0  0  0  0  0
   -0.1420   -3.5554   -2.1330 C   0  0  0  0  0  0  0  0  0  0  0  0
   -0.8499   -4.2552   -3.2684 C   0  0  0  0  0  0  0  0  0  0  0  0
   -0.1527   -3.8964   -4.4928 N   0  0  0  0  0  0  0  0  0  0  0  0
    0.2473   -4.7595   -5.4147 C   0  0  0  0  0  0  0  0  0  0  0  0
    0.0060   -5.9863   -5.2272 O   0  0  0  0  0  0  0  0  0  0  0  0
    0.8931   -4.3179   -6.5158 N   0  0  0  0  0  0  0  0  0  0  0  0
    1.1601   -3.0144   -6.7348 C   0  0  0  0  0  0  0  0  0  0  0  0
    1.8398   -2.5443   -7.8924 N   0  0  0  0  0  0  0  0  0  0  0  0
    0.7563   -2.0988   -5.7948 C   0  0  0  0  0  0  0  0  0  0  0  0
    0.0907   -2.5637   -4.6620 C   0  0  0  0  0  0  0  0  0  0  0  0
    0.8270   -4.5327    1.3696 P   0  0  0  0  0  0  0  0  0  0  0  0
    0.3582   -5.9526    2.1871 O   0  0  0  0  0  0  0  0  0  0  0  0
    2.1559   -4.8145    0.7267 O   0  0  0  0  0  0  0  0  0  0  0  0
    1.0449   -3.3358    2.5492 O   0  0  0  0  0  0  0  0  0  0  0  0
    0.1466   -3.4555    3.5779 C   0  0  0  0  0  0  0  0  0  0  0  0
    0.5464   -2.8751    4.8898 C   0  0  0  0  0  0  0  0  0  0  0  0
   -0.4408   -3.0635    5.8644 O   0  0  0  0  0  0  0  0  0  0  0  0
    0.9149   -1.4400    4.9151 C   0  0  0  0  0  0  0  0  0  0  0  0
    2.1356   -1.2256    5.5656 O   0  0  0  0  0  0  0  0  0  0  0  0
   -0.2189   -0.8215    5.7465 C   0  0  0  0  0  0  0  0  0  0  0  0
   -1.2053   -1.9379    5.7634 C   0  0  0  0  0  0  0  0  0  0  0  0
   -2.1920   -1.8118    6.8131 N   0  0  0  0  0  0  0  0  0  0  0  0
   -3.4578   -1.3472    6.7494 C   0  0  0  0  0  0  0  0  0  0  0  0
   -3.9776   -1.4285    7.9979 N   0  0  0  0  0  0  0  0  0  0  0  0
   -3.0693   -1.9324    8.8409 C   0  0  0  0  0  0  0  0  0  0  0  0
   -3.0199   -2.2380   10.1876 C   0  0  0  0  0  0  0  0  0  0  0  0
   -4.0371   -2.0284   10.9026 O   0  0  0  0  0  0  0  0  0  0  0  0
   -1.8992   -2.7613   10.7640 N   0  0  0  0  0  0  0  0  0  0  0  0
   -0.7939   -2.9908    9.9950 C   0  0  0  0  0  0  0  0  0  0  0  0
    0.4017   -3.5406   10.5703 N   0  0  0  0  0  0  0  0  0  0  0  0
   -0.8298   -2.6981    8.6875 N   0  0  0  0  0  0  0  0  0  0  0  0
   -1.9395   -2.1742    8.0871 C   0  0  0  0  0  0  0  0  0  0  0  0
    3.0668   -0.0713    4.8195 P   0  0  0  0  0  0  0  0  0  0  0  0
    3.8844    0.9164    5.9319 O   0  0  0  0  0  0  0  0  0  0  0  0
    4.1054   -0.8161    3.9695 O   0  0  0  0  0  0  0  0  0  0  0  0
    2.2212    0.9391    3.7688 O   0  0  0  0  0  0  0  0  0  0  0  0
    2.7430    2.2268    3.8910 C   0  0  0  0  0  0  0  0  0  0  0  0
    2.1459    3.1542    2.8477 C   0  0  0  0  0  0  0  0  0  0  0  0
    0.7708    3.2306    2.9950 O   0  0  0  0  0  0  0  0  0  0  0  0
    2.6673    4.5631    2.9599 C   0  0  0  0  0  0  0  0  0  0  0  0
    2.9648    5.1339    1.7497 O   0  0  0  0  0  0  0  0  0  0  0  0
    1.6471    5.2704    3.7695 C   0  0  0  0  0  0  0  0  0  0  0  0
    0.4807    4.3121    3.7789 C   0  0  0  0  0  0  0  0  0  0  0  0
   -0.6870    4.9883    3.1894 N   0  0  0  0  0  0  0  0  0  0  0  0
   -0.8560    5.0633    1.8569 C   0  0  0  0  0  0  0  0  0  0  0  0
   -0.0050    4.5462    1.1013 O   0  0  0  0  0  0  0  0  0  0  0  0
   -1.9385    5.6938    1.3165 N   0  0  0  0  0  0  0  0  0  0  0  0
   -2.8831    6.2664    2.0826 C   0  0  0  0  0  0  0  0  0  0  0  0
   -3.8931    6.8546    1.5841 O   0  0  0  0  0  0  0  0  0  0  0  0
   -2.7304    6.2014    3.4607 C   0  0  0  0  0  0  0  0  0  0  0  0
   -3.7152    6.8029    4.3953 C   0  0  0  0  0  0  0  0  0  0  0  0
   -1.6313    5.5606    3.9826 C   0  0  0  0  0  0  0  0  0  0  0  0
    4.4991    5.5756    1.4139 P   0  0  0  0  0  0  0  0  0  0  0  0
    4.7875    7.2580    1.5457 O   0  0  0  0  0  0  0  0  0  0  0  0
    5.3815    4.9874    2.5284 O   0  0  0  0  0  0  0  0  0  0  0  0
    5.1678    5.0324   -0.0084 O   0  0  0  0  0  0  0  0  0  0  0  0
    4.2490    5.0783   -1.0536 C   0  0  0  0  0  0  0  0  0  0  0  0
    4.8474    4.5947   -2.3446 C   0  0  0  0  0  0  0  0  0  0  0  0
    5.3004    3.2833   -2.2671 O   0  0  0  0  0  0  0  0  0  0  0  0
    3.7583    4.5282   -3.3926 C   0  0  0  0  0  0  0  0  0  0  0  0
    2.7524    3.7469   -2.8762 O   0  0  0  0  0  0  0  0  0  0  0  0
    4.5661    3.6935   -4.4379 C   0  0  0  0  0  0  0  0  0  0  0  0
    5.1076    2.6570   -3.4740 C   0  0  0  0  0  0  0  0  0  0  0  0
    6.2054    1.8962   -3.9713 N   0  0  0  0  0  0  0  0  0  0  0  0
    7.4322    2.3592   -4.3341 C   0  0  0  0  0  0  0  0  0  0  0  0
    8.1973    1.3259   -4.7496 N   0  0  0  0  0  0  0  0  0  0  0  0
    7.4825    0.1862   -4.6630 C   0  0  0  0  0  0  0  0  0  0  0  0
    7.7413   -1.1510   -4.9457 C   0  0  0  0  0  0  0  0  0  0  0  0
    9.0073   -1.5479   -5.4448 N   0  0  0  0  0  0  0  0  0  0  0  0
    6.7950   -2.1061   -4.7511 N   0  0  0  0  0  0  0  0  0  0  0  0
    5.5815   -1.7223   -4.2713 C   0  0  0  0  0  0  0  0  0  0  0  0
    5.3265   -0.4228   -3.9959 N   0  0  0  0  0  0  0  0  0  0  0  0
    6.2515    0.5467   -4.1808 C   0  0  0  0  0  0  0  0  0  0  0  0
    1.1955    4.2742   -3.1329 P   0  0  0  0  0  0  0  0  0  0  0  0
    1.0332    5.1430   -4.5657 O   0  0  0  0  0  0  0  0  0  0  0  0
    0.7508    5.1272   -1.9648 O   0  0  0  0  0  0  0  0  0  0  0  0
    0.2004    2.8926   -3.1492 O   0  0  0  0  0  0  0  0  0  0  0  0
   -0.2838    2.6503   -1.8523 C   0  0  0  0  0  0  0  0  0  0  0  0
   -0.5586    1.1500   -1.6945 C   0  0  0  0  0  0  0  0  0  0  0  0
    0.5971    0.4460   -1.8889 O   0  0  0  0  0  0  0  0  0  0  0  0
   -0.9786    0.9510   -0.2526 C   0  0  0  0  0  0  0  0  0  0  0  0
   -1.6103    2.0218    0.3144 O   0  0  0  0  0  0  0  0  0  0  0  0
    0.4331    0.7469    0.3502 C   0  0  0  0  0  0  0  0  0  0  0  0
    0.9807   -0.1284   -0.7248 C   0  0  0  0  0  0  0  0  0  0  0  0
    2.3908   -0.3954   -0.6132 N   0  0  0  0  0  0  0  0  0  0  0  0
    3.3314    0.5641   -0.5536 C   0  0  0  0  0  0  0  0  0  0  0  0
    2.9724    1.7441   -0.5903 O   0  0  0  0  0  0  0  0  0  0  0  0
    4.6505    0.3060   -0.4557 N   0  0  0  0  0  0  0  0  0  0  0  0
    5.1455   -0.9440   -0.4087 C   0  0  0  0  0  0  0  0  0  0  0  0
    6.5298   -1.1774   -0.3082 N   0  0  0  0  0  0  0  0  0  0  0  0
    4.1976   -1.9683   -0.4678 C   0  0  0  0  0  0  0  0  0  0  0  0
    2.8726   -1.6753   -0.5662 C   0  0  0  0  0  0  0  0  0  0  0  0
   -2.9581    1.4581    1.1635 P   0  0  0  0  0  0  0  0  0  0  0  0
   -3.3564    2.5727    2.1126 O   0  0  0  0  0  0  0  0  0  0  0  0
   -2.5281    0.0618    2.0247 O   0  0  0  0  0  0  0  0  0  0  0  0
   -4.2183    1.0731    0.1088 O   0  0  0  0  0  0  0  0  0  0  0  0
   -5.3433    1.7229    0.5534 C   0  0  0  0  0  0  0  0  0  0  0  0
   -6.5738    1.3994   -0.2654 C   0  0  0  0  0  0  0  0  0  0  0  0
   -6.8554    0.0181   -0.2246 O   0  0  0  0  0  0  0  0  0  0  0  0
   -6.3901    1.6053   -1.7386 C   0  0  0  0  0  0  0  0  0  0  0  0
   -5.1029    1.3674   -2.1873 O   0  0  0  0  0  0  0  0  0  0  0  0
   -7.4157    0.6514   -2.3434 C   0  0  0  0  0  0  0  0  0  0  0  0
   -7.9464   -0.0197   -1.0970 C   0  0  0  0  0  0  0  0  0  0  0  0
   -8.4635   -1.3334   -1.3056 N   0  0  0  0  0  0  0  0  0  0  0  0
   -9.7685   -1.6876   -1.1963 C   0  0  0  0  0  0  0  0  0  0  0  0
   -9.8795   -3.0060   -1.4660 N   0  0  0  0  0  0  0  0  0  0  0  0
   -8.6645   -3.4841   -1.7425 C   0  0  0  0  0  0  0  0  0  0  0  0
   -8.1901   -4.7449   -2.0825 C   0  0  0  0  0  0  0  0  0  0  0  0
   -8.9939   -5.6985   -2.1741 O   0  0  0  0  0  0  0  0  0  0  0  0
   -6.8658   -4.8485   -2.2933 N   0  0  0  0  0  0  0  0  0  0  0  0
   -6.0211   -3.8154   -2.1902 C   0  0  0  0  0  0  0  0  0  0  0  0
   -4.6263   -3.9574   -2.4208 N   0  0  0  0  0  0  0  0  0  0  0  0
   -6.4584   -2.5660   -1.8575 N   0  0  0  0  0  0  0  0  0  0  0  0
   -7.7802   -2.4387   -1.6420 C   0  0  0  0  0  0  0  0  0  0  0  0
   -0.8158   -8.0955   -2.8021 H   0  0  0  0  0  0  0  0  0  0  0  0
    0.6066   -7.1542   -1.5273 H   0  0  0  0  0  0  0  0  0  0  0  0
   -0.5339   -7.1843   -0.1060 H   0  0  0  0  0  0  0  0  0  0  0  0
   -1.9443   -5.4439   -1.2679 H   0  0  0  0  0  0  0  0  0  0  0  0
    1.0638   -5.0200   -1.0082 H   0  0  0  0  0  0  0  0  0  0  0  0
    0.8659   -3.1859   -2.4773 H   0  0  0  0  0  0  0  0  0  0  0  0
   -0.8038   -2.7175   -1.8356 H   0  0  0  0  0  0  0  0  0  0  0  0
   -1.8949   -3.9016   -3.3624 H   0  0  0  0  0  0  0  0  0  0  0  0
    1.3858   -1.8121   -8.4604 H   0  0  0  0  0  0  0  0  0  0  0  0
    2.7744   -2.9030   -8.1965 H   0  0  0  0  0  0  0  0  0  0  0  0
    0.9423   -1.0262   -5.9113 H   0  0  0  0  0  0  0  0  0  0  0  0
   -0.2065   -1.8185   -3.9533 H   0  0  0  0  0  0  0  0  0  0  0  0
   -0.2211   -4.5179    3.6819 H   0  0  0  0  0  0  0  0  0  0  0  0
   -0.7759   -2.9045    3.2527 H   0  0  0  0  0  0  0  0  0  0  0  0
    1.4320   -3.4616    5.2558 H   0  0  0  0  0  0  0  0  0  0  0  0
    0.8392   -0.9276    3.9370 H   0  0  0  0  0  0  0  0  0  0  0  0
    0.2185   -0.5956    6.7351 H   0  0  0  0  0  0  0  0  0  0  0  0
   -0.6105    0.1116    5.2946 H   0  0  0  0  0  0  0  0  0  0  0  0
   -1.7273   -1.9489    4.7720 H   0  0  0  0  0  0  0  0  0  0  0  0
   -3.9374   -0.9822    5.8374 H   0  0  0  0  0  0  0  0  0  0  0  0
    1.2264   -2.9559   10.8256 H   0  0  0  0  0  0  0  0  0  0  0  0
    0.4782   -4.5765   10.7541 H   0  0  0  0  0  0  0  0  0  0  0  0
    0.0483   -2.8933    8.1436 H   0  0  0  0  0  0  0  0  0  0  0  0
    2.6525    2.6326    4.9237 H   0  0  0  0  0  0  0  0  0  0  0  0
    3.8363    2.1535    3.6948 H   0  0  0  0  0  0  0  0  0  0  0  0
    2.3740    2.6890    1.8901 H   0  0  0  0  0  0  0  0  0  0  0  0
    3.6044    4.5197    3.5469 H   0  0  0  0  0  0  0  0  0  0  0  0
    1.9721    5.4583    4.8338 H   0  0  0  0  0  0  0  0  0  0  0  0
    1.3205    6.2415    3.3605 H   0  0  0  0  0  0  0  0  0  0  0  0
    0.2087    4.0203    4.8357 H   0  0  0  0  0  0  0  0  0  0  0  0
   -2.0689    5.7505    0.2721 H   0  0  0  0  0  0  0  0  0  0  0  0
   -4.7339    6.7824    3.9774 H   0  0  0  0  0  0  0  0  0  0  0  0
   -3.7223    6.2610    5.3671 H   0  0  0  0  0  0  0  0  0  0  0  0
   -3.4780    7.8599    4.6282 H   0  0  0  0  0  0  0  0  0  0  0  0
   -1.5176    5.5139    5.0456 H   0  0  0  0  0  0  0  0  0  0  0  0
    3.9436    6.1454   -1.1984 H   0  0  0  0  0  0  0  0  0  0  0  0
    3.3584    4.5047   -0.7317 H   0  0  0  0  0  0  0  0  0  0  0  0
    5.6806    5.2372   -2.6500 H   0  0  0  0  0  0  0  0  0  0  0  0
    3.4675    5.4767   -3.8316 H   0  0  0  0  0  0  0  0  0  0  0  0
    3.8941    3.2495   -5.1826 H   0  0  0  0  0  0  0  0  0  0  0  0
    5.3324    4.3391   -4.8580 H   0  0  0  0  0  0  0  0  0  0  0  0
    4.2389    1.9511   -3.3197 H   0  0  0  0  0  0  0  0  0  0  0  0
    7.7708    3.3775   -4.3069 H   0  0  0  0  0  0  0  0  0  0  0  0
    9.2044   -1.4886   -6.4716 H   0  0  0  0  0  0  0  0  0  0  0  0
    9.7738   -1.9057   -4.8243 H   0  0  0  0  0  0  0  0  0  0  0  0
    4.8280   -2.5063   -4.1195 H   0  0  0  0  0  0  0  0  0  0  0  0
   -1.2202    3.2295   -1.7678 H   0  0  0  0  0  0  0  0  0  0  0  0
    0.4460    3.0199   -1.1360 H   0  0  0  0  0  0  0  0  0  0  0  0
   -1.3402    0.8330   -2.4095 H   0  0  0  0  0  0  0  0  0  0  0  0
   -1.4628   -0.0318   -0.1055 H   0  0  0  0  0  0  0  0  0  0  0  0
    0.8474    1.7526    0.3787 H   0  0  0  0  0  0  0  0  0  0  0  0
    0.3936    0.3022    1.3476 H   0  0  0  0  0  0  0  0  0  0  0  0
    0.4310   -1.1094   -0.6136 H   0  0  0  0  0  0  0  0  0  0  0  0
    7.1720   -0.5929    0.2610 H   0  0  0  0  0  0  0  0  0  0  0  0
    6.9628   -1.9749   -0.8227 H   0  0  0  0  0  0  0  0  0  0  0  0
    4.5435   -3.0023   -0.4341 H   0  0  0  0  0  0  0  0  0  0  0  0
    2.1207   -2.4417   -0.6104 H   0  0  0  0  0  0  0  0  0  0  0  0
   -5.5859    1.5922    1.6079 H   0  0  0  0  0  0  0  0  0  0  0  0
   -5.1750    2.8276    0.4174 H   0  0  0  0  0  0  0  0  0  0  0  0
   -7.4560    1.9718    0.0807 H   0  0  0  0  0  0  0  0  0  0  0  0
   -6.6333    2.6678   -1.9720 H   0  0  0  0  0  0  0  0  0  0  0  0
   -4.8802    0.4152   -2.2125 H   0  0  0  0  0  0  0  0  0  0  0  0
   -7.0031   -0.0259   -3.0906 H   0  0  0  0  0  0  0  0  0  0  0  0
   -8.2017    1.2813   -2.8024 H   0  0  0  0  0  0  0  0  0  0  0  0
   -8.7290    0.6489   -0.6619 H   0  0  0  0  0  0  0  0  0  0  0  0
  -10.5749   -0.9948   -0.9308 H   0  0  0  0  0  0  0  0  0  0  0  0
   -3.9610   -4.0075   -1.6099 H   0  0  0  0  0  0  0  0  0  0  0  0
   -4.2996   -4.0074   -3.4199 H   0  0  0  0  0  0  0  0  0  0  0  0
   -5.8327   -1.7541   -1.7691 H   0  0  0  0  0  0  0  0  0  0  0  0
  1  2  1  0
  1121  1  0
  2  3  1  0
  2122  1  0
  2123  1  0
  3  4  1  0
  3  5  1  0
  3124  1  0
  4  8  1  0
  5  7  1  0
  5  6  1  0
  5125  1  0
  6 17  1  0
  7  8  1  0
  7126  1  0
  7127  1  0
  8  9  1  0
  8128  1  0
  9 16  1  0
  9 10  1  0
 10 12  1  0
 10 11  2  0
 12 13  2  0
 13 15  1  0
 13 14  1  0
 14129  1  0
 14130  1  0
 15 16  2  0
 15131  1  0
 16132  1  0
 17 20  1  0
 17 19  2  0
 17 18  1  0
 20 21  1  0
 21 22  1  0
 21133  1  0
 21134  1  0
 22 24  1  0
 22 23  1  0
 22135  1  0
 23 27  1  0
 24 25  1  0
 24 26  1  0
 24136  1  0
 25 39  1  0
 26 27  1  0
 26137  1  0
 26138  1  0
 27 28  1  0
 27139  1  0
 28 38  1  0
 28 29  1  0
 29 30  2  0
 29140  1  0
 30 31  1  0
 31 32  1  0
 31 38  2  0
 32 33  2  0
 32 34  1  0
 34 35  2  0
 35 36  1  0
 35 37  1  0
 36141  1  0
 36142  1  0
 37 38  1  0
 37143  1  0
 39 41  2  0
 39 42  1  0
 39 40  1  0
 42 43  1  0
 43 44  1  0
 43144  1  0
 43145  1  0
 44 46  1  0
 44 45  1  0
 44146  1  0
 45 49  1  0
 46 48  1  0
 46 47  1  0
 46147  1  0
 47 59  1  0
 48 49  1  0
 48148  1  0
 48149  1  0
 49 50  1  0
 49150  1  0
 50 51  1  0
 50 58  1  0
 51 53  1  0
 51 52  2  0
 53 54  1  0
 53151  1  0
 54 55  2  0
 54 56  1  0
 56 57  1  0
 56 58  2  0
 57152  1  0
 57153  1  0
 57154  1  0
 58155  1  0
 59 61  2  0
 59 62  1  0
 59 60  1  0
 62 63  1  0
 63 64  1  0
 63156  1  0
 63157  1  0
 64 66  1  0
 64 65  1  0
 64158  1  0
 65 69  1  0
 66 68  1  0
 66 67  1  0
 66159  1  0
 67 80  1  0
 68 69  1  0
 68160  1  0
 68161  1  0
 69 70  1  0
 69162  1  0
 70 79  1  0
 70 71  1  0
 71 72  2  0
 71163  1  0
 72 73  1  0
 73 79  2  0
 73 74  1  0
 74 76  2  0
 74 75  1  0
 75164  1  0
 75165  1  0
 76 77  1  0
 77 78  2  0
 77166  1  0
 78 79  1  0
 80 83  1  0
 80 82  2  0
 80 81  1  0
 83 84  1  0
 84 85  1  0
 84167  1  0
 84168  1  0
 85 87  1  0
 85 86  1  0
 85169  1  0
 86 90  1  0
 87 88  1  0
 87 89  1  0
 87170  1  0
 88 99  1  0
 89 90  1  0
 89171  1  0
 89172  1  0
 90 91  1  0
 90173  1  0
 91 98  1  0
 91 92  1  0
 92 93  2  0
 92 94  1  0
 94 95  2  0
 95 97  1  0
 95 96  1  0
 96174  1  0
 96175  1  0
 97 98  2  0
 97176  1  0
 98177  1  0
 99100  2  0
 99101  1  0
 99102  1  0
102103  1  0
103104  1  0
103178  1  0
103179  1  0
104105  1  0
104106  1  0
104180  1  0
105109  1  0
106108  1  0
106107  1  0
106181  1  0
107182  1  0
108109  1  0
108183  1  0
108184  1  0
109110  1  0
109185  1  0
110111  1  0
110120  1  0
111112  2  0
111186  1  0
112113  1  0
113114  1  0
113120  2  0
114115  2  0
114116  1  0
116117  2  0
117118  1  0
117119  1  0
118187  1  0
118188  1  0
119120  1  0
119189  1  0
M  CHG  5  18  -1  40  -1  60  -1  81  -1 101  -1
M  END
$$$$
DNA (5'-D(*CP*GP*TP*AP*CP*G)-3')
     RDKit          3D

189203  0  0  0  0  0  0  0  0999 V2000
    5.3330   -2.4996    3.6736 O   0  0  0  0  0  0  0  0  0  0  0  0
    5.6850   -3.4308    2.7017 C   0  0  0  0  0  0  0  0  0  0  0  0
    7.1627   -3.2898    2.4085 C   0  0  0  0  0  0  0  0  0  0  0  0
    7.5274   -4.2437    1.4193 O   0  0  0  0  0  0  0  0  0  0  0  0
    7.5247   -1.9793    1.7639 C   0  0  0  0  0  0  0  0  0  0  0  0
    6.5466   -1.6530    0.8512 O   0  0  0  0  0  0  0  0  0  0  0  0
    8.8073   -2.3890    1.0328 C   0  0  0  0  0  0  0  0  0  0  0  0
    8.8119   -3.8719    1.1228 C   0  0  0  0  0  0  0  0  0  0  0  0
    9.2923   -4.4986   -0.1068 N   0  0  0  0  0  0  0  0  0  0  0  0
    8.3751   -4.8016   -1.0477 C   0  0  0  0  0  0  0  0  0  0  0  0
    7.1571   -4.5330   -0.8286 O   0  0  0  0  0  0  0  0  0  0  0  0
    8.7272   -5.3781   -2.2042 N   0  0  0  0  0  0  0  0  0  0  0  0
   10.0106   -5.6899   -2.4980 C   0  0  0  0  0  0  0  0  0  0  0  0
   10.3769   -6.3022   -3.7321 N   0  0  0  0  0  0  0  0  0  0  0  0
   10.9492   -5.3741   -1.5204 C   0  0  0  0  0  0  0  0  0  0  0  0
   10.5833   -4.7740   -0.3192 C   0  0  0  0  0  0  0  0  0  0  0  0
    6.1525   -0.0043    0.8104 P   0  0  0  0  0  0  0  0  0  0  0  0
    4.6056    0.2645    1.4223 O   0  0  0  0  0  0  0  0  0  0  0  0
    7.1415    0.7284    1.6746 O   0  0  0  0  0  0  0  0  0  0  0  0
    6.2986    0.5787   -0.7727 O   0  0  0  0  0  0  0  0  0  0  0  0
    5.1464    1.2362   -1.2226 C   0  0  0  0  0  0  0  0  0  0  0  0
    4.4754    0.3359   -2.2591 C   0  0  0  0  0  0  0  0  0  0  0  0
    5.4083    0.1003   -3.2543 O   0  0  0  0  0  0  0  0  0  0  0  0
    3.2706    0.9355   -2.8478 C   0  0  0  0  0  0  0  0  0  0  0  0
    2.7092    1.9500   -2.0870 O   0  0  0  0  0  0  0  0  0  0  0  0
    3.8114    1.5023   -4.1760 C   0  0  0  0  0  0  0  0  0  0  0  0
    4.8598    0.4203   -4.4623 C   0  0  0  0  0  0  0  0  0  0  0  0
    4.2897   -0.7421   -5.1098 N   0  0  0  0  0  0  0  0  0  0  0  0
    3.6408   -1.7987   -4.5666 C   0  0  0  0  0  0  0  0  0  0  0  0
    3.2777   -2.6702   -5.5387 N   0  0  0  0  0  0  0  0  0  0  0  0
    3.6803   -2.1963   -6.7103 C   0  0  0  0  0  0  0  0  0  0  0  0
    3.5351   -2.7334   -7.9714 C   0  0  0  0  0  0  0  0  0  0  0  0
    2.9469   -3.8342   -8.1217 O   0  0  0  0  0  0  0  0  0  0  0  0
    4.0485   -2.0229   -8.9955 N   0  0  0  0  0  0  0  0  0  0  0  0
    4.6764   -0.8325   -8.7632 C   0  0  0  0  0  0  0  0  0  0  0  0
    5.1790   -0.1697   -9.9232 N   0  0  0  0  0  0  0  0  0  0  0  0
    4.8040   -0.3314   -7.5216 N   0  0  0  0  0  0  0  0  0  0  0  0
    4.3073   -1.0011   -6.4508 C   0  0  0  0  0  0  0  0  0  0  0  0
    1.0329    1.9572   -2.2821 P   0  0  0  0  0  0  0  0  0  0  0  0
    0.7554    2.8284   -3.7217 O   0  0  0  0  0  0  0  0  0  0  0  0
    0.6114    0.5282   -2.6198 O   0  0  0  0  0  0  0  0  0  0  0  0
    0.1420    2.4949   -1.0219 O   0  0  0  0  0  0  0  0  0  0  0  0
    0.6925    2.5724    0.2227 C   0  0  0  0  0  0  0  0  0  0  0  0
   -0.2829    3.2254    1.1648 C   0  0  0  0  0  0  0  0  0  0  0  0
   -1.5050    2.5156    1.2624 O   0  0  0  0  0  0  0  0  0  0  0  0
    0.2086    3.0723    2.5767 C   0  0  0  0  0  0  0  0  0  0  0  0
    0.3545    1.7329    2.8576 O   0  0  0  0  0  0  0  0  0  0  0  0
   -1.1052    3.4987    3.3117 C   0  0  0  0  0  0  0  0  0  0  0  0
   -2.1690    3.1665    2.2823 C   0  0  0  0  0  0  0  0  0  0  0  0
   -3.2011    2.3878    2.8967 N   0  0  0  0  0  0  0  0  0  0  0  0
   -4.0869    2.9742    3.7226 C   0  0  0  0  0  0  0  0  0  0  0  0
   -3.9878    4.2287    3.9506 O   0  0  0  0  0  0  0  0  0  0  0  0
   -5.0794    2.2530    4.3137 N   0  0  0  0  0  0  0  0  0  0  0  0
   -5.2101    0.9196    4.0910 C   0  0  0  0  0  0  0  0  0  0  0  0
   -6.1283    0.2936    4.6497 O   0  0  0  0  0  0  0  0  0  0  0  0
   -4.3052    0.2872    3.2397 C   0  0  0  0  0  0  0  0  0  0  0  0
   -4.4233   -1.1519    2.9857 C   0  0  0  0  0  0  0  0  0  0  0  0
   -3.3070    1.0644    2.6583 C   0  0  0  0  0  0  0  0  0  0  0  0
    1.5893    1.3384    3.8965 P   0  0  0  0  0  0  0  0  0  0  0  0
    1.2577    2.1229    5.3824 O   0  0  0  0  0  0  0  0  0  0  0  0
    2.9504    1.8390    3.4872 O   0  0  0  0  0  0  0  0  0  0  0  0
    1.5712   -0.3356    4.1007 O   0  0  0  0  0  0  0  0  0  0  0  0
    0.9986   -0.9830    2.9980 C   0  0  0  0  0  0  0  0  0  0  0  0
    0.8489   -2.4230    3.2890 C   0  0  0  0  0  0  0  0  0  0  0  0
    0.0196   -2.5974    4.4166 O   0  0  0  0  0  0  0  0  0  0  0  0
    0.1636   -3.2339    2.2441 C   0  0  0  0  0  0  0  0  0  0  0  0
   -0.8431   -2.5934    1.5788 O   0  0  0  0  0  0  0  0  0  0  0  0
   -0.3596   -4.3937    3.0956 C   0  0  0  0  0  0  0  0  0  0  0  0
    0.0282   -3.9871    4.4853 C   0  0  0  0  0  0  0  0  0  0  0  0
   -0.9397   -4.4030    5.4787 N   0  0  0  0  0  0  0  0  0  0  0  0
   -1.4950   -5.6433    5.5908 C   0  0  0  0  0  0  0  0  0  0  0  0
   -2.3525   -5.6631    6.6378 N   0  0  0  0  0  0  0  0  0  0  0  0
   -2.3652   -4.4491    7.2131 C   0  0  0  0  0  0  0  0  0  0  0  0
   -3.0624   -3.9396    8.3002 C   0  0  0  0  0  0  0  0  0  0  0  0
   -3.9733   -4.7415    9.0579 N   0  0  0  0  0  0  0  0  0  0  0  0
   -2.8823   -2.6640    8.6606 N   0  0  0  0  0  0  0  0  0  0  0  0
   -2.0096   -1.9058    7.9352 C   0  0  0  0  0  0  0  0  0  0  0  0
   -1.3337   -2.3991    6.8828 N   0  0  0  0  0  0  0  0  0  0  0  0
   -1.4771   -3.6713    6.4778 C   0  0  0  0  0  0  0  0  0  0  0  0
   -0.6534   -2.6562   -0.0813 P   0  0  0  0  0  0  0  0  0  0  0  0
   -0.1739   -4.2561   -0.4600 O   0  0  0  0  0  0  0  0  0  0  0  0
    0.4557   -1.7623   -0.5864 O   0  0  0  0  0  0  0  0  0  0  0  0
   -2.1222   -2.3170   -0.8858 O   0  0  0  0  0  0  0  0  0  0  0  0
   -2.0487   -2.5246   -2.2468 C   0  0  0  0  0  0  0  0  0  0  0  0
   -3.3410   -2.3350   -2.9666 C   0  0  0  0  0  0  0  0  0  0  0  0
   -4.3490   -3.1904   -2.5405 O   0  0  0  0  0  0  0  0  0  0  0  0
   -3.9036   -0.9386   -2.8650 C   0  0  0  0  0  0  0  0  0  0  0  0
   -3.0052    0.0665   -2.7182 O   0  0  0  0  0  0  0  0  0  0  0  0
   -4.7429   -1.0623   -1.6148 C   0  0  0  0  0  0  0  0  0  0  0  0
   -5.2277   -2.4886   -1.7331 C   0  0  0  0  0  0  0  0  0  0  0  0
   -6.5905   -2.5563   -2.2069 N   0  0  0  0  0  0  0  0  0  0  0  0
   -6.9041   -3.1529   -3.3676 C   0  0  0  0  0  0  0  0  0  0  0  0
   -6.0024   -3.6860   -4.0972 O   0  0  0  0  0  0  0  0  0  0  0  0
   -8.1878   -3.1912   -3.7729 N   0  0  0  0  0  0  0  0  0  0  0  0
   -9.1835   -2.6461   -3.0474 C   0  0  0  0  0  0  0  0  0  0  0  0
  -10.5501   -2.6746   -3.4535 N   0  0  0  0  0  0  0  0  0  0  0  0
   -8.8447   -2.0300   -1.8460 C   0  0  0  0  0  0  0  0  0  0  0  0
   -7.5305   -1.9847   -1.4221 C   0  0  0  0  0  0  0  0  0  0  0  0
   -3.2605    1.1737   -3.9857 P   0  0  0  0  0  0  0  0  0  0  0  0
   -4.2129    0.6079   -5.0262 O   0  0  0  0  0  0  0  0  0  0  0  0
   -1.7894    1.4621   -4.7920 O   0  0  0  0  0  0  0  0  0  0  0  0
   -3.8458    2.6526   -3.4685 O   0  0  0  0  0  0  0  0  0  0  0  0
   -2.8068    3.5114   -3.1680 C   0  0  0  0  0  0  0  0  0  0  0  0
   -3.2014    4.9072   -2.8179 C   0  0  0  0  0  0  0  0  0  0  0  0
   -3.8779    5.5900   -3.7907 O   0  0  0  0  0  0  0  0  0  0  0  0
   -1.9018    5.6624   -2.5499 C   0  0  0  0  0  0  0  0  0  0  0  0
   -1.9046    6.2936   -1.3310 O   0  0  0  0  0  0  0  0  0  0  0  0
   -1.8203    6.6208   -3.7257 C   0  0  0  0  0  0  0  0  0  0  0  0
   -3.3129    6.8354   -3.9772 C   0  0  0  0  0  0  0  0  0  0  0  0
   -3.7384    7.8336   -3.0456 N   0  0  0  0  0  0  0  0  0  0  0  0
   -3.0730    8.9749   -2.7965 C   0  0  0  0  0  0  0  0  0  0  0  0
   -3.7433    9.6898   -1.8687 N   0  0  0  0  0  0  0  0  0  0  0  0
   -4.8451    9.0114   -1.5141 C   0  0  0  0  0  0  0  0  0  0  0  0
   -5.8652    9.2533   -0.6343 C   0  0  0  0  0  0  0  0  0  0  0  0
   -5.9317   10.2900    0.0667 O   0  0  0  0  0  0  0  0  0  0  0  0
   -6.8319    8.3236   -0.5330 N   0  0  0  0  0  0  0  0  0  0  0  0
   -6.8458    7.1836   -1.2434 C   0  0  0  0  0  0  0  0  0  0  0  0
   -7.8893    6.2059   -1.1205 N   0  0  0  0  0  0  0  0  0  0  0  0
   -5.8228    6.9728   -2.1055 N   0  0  0  0  0  0  0  0  0  0  0  0
   -4.8304    7.8414   -2.2636 C   0  0  0  0  0  0  0  0  0  0  0  0
    4.4698   -2.7749    4.0793 H   0  0  0  0  0  0  0  0  0  0  0  0
    5.4616   -4.4586    3.0207 H   0  0  0  0  0  0  0  0  0  0  0  0
    5.1182   -3.1605    1.7860 H   0  0  0  0  0  0  0  0  0  0  0  0
    7.7473   -3.5088    3.3138 H   0  0  0  0  0  0  0  0  0  0  0  0
    7.7514   -1.2332    2.5245 H   0  0  0  0  0  0  0  0  0  0  0  0
    8.7984   -2.0045   -0.0133 H   0  0  0  0  0  0  0  0  0  0  0  0
    9.6628   -1.9818    1.6029 H   0  0  0  0  0  0  0  0  0  0  0  0
    9.4835   -4.1873    1.9573 H   0  0  0  0  0  0  0  0  0  0  0  0
   11.0432   -7.0983   -3.7882 H   0  0  0  0  0  0  0  0  0  0  0  0
    9.9651   -5.9531   -4.6426 H   0  0  0  0  0  0  0  0  0  0  0  0
   11.9867   -5.6125   -1.7317 H   0  0  0  0  0  0  0  0  0  0  0  0
   11.3323   -4.5319    0.4297 H   0  0  0  0  0  0  0  0  0  0  0  0
    5.4911    2.1366   -1.7707 H   0  0  0  0  0  0  0  0  0  0  0  0
    4.4922    1.5561   -0.4194 H   0  0  0  0  0  0  0  0  0  0  0  0
    4.2229   -0.6468   -1.8027 H   0  0  0  0  0  0  0  0  0  0  0  0
    2.4410    0.2497   -3.1248 H   0  0  0  0  0  0  0  0  0  0  0  0
    3.0795    1.4341   -4.9813 H   0  0  0  0  0  0  0  0  0  0  0  0
    4.3172    2.4597   -4.0403 H   0  0  0  0  0  0  0  0  0  0  0  0
    5.6621    0.8121   -5.1177 H   0  0  0  0  0  0  0  0  0  0  0  0
    3.4197   -1.9727   -3.5420 H   0  0  0  0  0  0  0  0  0  0  0  0
    6.1664    0.1445  -10.0309 H   0  0  0  0  0  0  0  0  0  0  0  0
    4.4583   -0.0185  -10.6900 H   0  0  0  0  0  0  0  0  0  0  0  0
    5.2903    0.5786   -7.3906 H   0  0  0  0  0  0  0  0  0  0  0  0
    1.5727    3.2589    0.1757 H   0  0  0  0  0  0  0  0  0  0  0  0
    1.0166    1.5826    0.5333 H   0  0  0  0  0  0  0  0  0  0  0  0
   -0.4566    4.2854    0.9369 H   0  0  0  0  0  0  0  0  0  0  0  0
    1.0168    3.7310    2.8870 H   0  0  0  0  0  0  0  0  0  0  0  0
   -1.1141    4.5843    3.4722 H   0  0  0  0  0  0  0  0  0  0  0  0
   -1.1772    2.8909    4.2161 H   0  0  0  0  0  0  0  0  0  0  0  0
   -2.6728    4.1100    1.9198 H   0  0  0  0  0  0  0  0  0  0  0  0
   -5.7774    2.7208    4.9686 H   0  0  0  0  0  0  0  0  0  0  0  0
   -5.1940   -1.4286    2.2287 H   0  0  0  0  0  0  0  0  0  0  0  0
   -4.7446   -1.6696    3.9390 H   0  0  0  0  0  0  0  0  0  0  0  0
   -3.4829   -1.6378    2.6873 H   0  0  0  0  0  0  0  0  0  0  0  0
   -2.6178    0.5822    2.0085 H   0  0  0  0  0  0  0  0  0  0  0  0
    0.1133   -0.4775    2.6218 H   0  0  0  0  0  0  0  0  0  0  0  0
    1.8180   -0.9106    2.2151 H   0  0  0  0  0  0  0  0  0  0  0  0
    1.8135   -2.9059    3.5375 H   0  0  0  0  0  0  0  0  0  0  0  0
    0.9038   -3.6124    1.5148 H   0  0  0  0  0  0  0  0  0  0  0  0
   -1.4460   -4.5328    2.9659 H   0  0  0  0  0  0  0  0  0  0  0  0
    0.2241   -5.3035    2.8537 H   0  0  0  0  0  0  0  0  0  0  0  0
    1.0493   -4.3255    4.7067 H   0  0  0  0  0  0  0  0  0  0  0  0
   -1.3054   -6.5037    4.9533 H   0  0  0  0  0  0  0  0  0  0  0  0
   -5.0020   -4.5495    9.0997 H   0  0  0  0  0  0  0  0  0  0  0  0
   -3.6425   -5.5657    9.6076 H   0  0  0  0  0  0  0  0  0  0  0  0
   -1.8535   -0.8594    8.2184 H   0  0  0  0  0  0  0  0  0  0  0  0
   -1.7524   -3.5907   -2.4066 H   0  0  0  0  0  0  0  0  0  0  0  0
   -1.2693   -1.9349   -2.7535 H   0  0  0  0  0  0  0  0  0  0  0  0
   -3.1711   -2.5405   -4.0342 H   0  0  0  0  0  0  0  0  0  0  0  0
   -4.5962   -0.7341   -3.7134 H   0  0  0  0  0  0  0  0  0  0  0  0
   -5.5452   -0.3136   -1.5322 H   0  0  0  0  0  0  0  0  0  0  0  0
   -4.1035   -0.9596   -0.7142 H   0  0  0  0  0  0  0  0  0  0  0  0
   -5.1902   -2.9492   -0.7257 H   0  0  0  0  0  0  0  0  0  0  0  0
  -10.9430   -1.7613   -3.8253 H   0  0  0  0  0  0  0  0  0  0  0  0
  -11.1459   -3.5243   -3.3964 H   0  0  0  0  0  0  0  0  0  0  0  0
   -9.5806   -1.5712   -1.1998 H   0  0  0  0  0  0  0  0  0  0  0  0
   -7.2818   -1.4975   -0.4712 H   0  0  0  0  0  0  0  0  0  0  0  0
   -2.3052    3.0854   -2.2651 H   0  0  0  0  0  0  0  0  0  0  0  0
   -2.0972    3.5006   -3.9931 H   0  0  0  0  0  0  0  0  0  0  0  0
   -3.7838    4.9618   -1.8681 H   0  0  0  0  0  0  0  0  0  0  0  0
   -1.0171    5.0313   -2.6016 H   0  0  0  0  0  0  0  0  0  0  0  0
   -1.2708    5.8484   -0.6828 H   0  0  0  0  0  0  0  0  0  0  0  0
   -1.2992    6.1973   -4.6040 H   0  0  0  0  0  0  0  0  0  0  0  0
   -1.3046    7.5114   -3.3661 H   0  0  0  0  0  0  0  0  0  0  0  0
   -3.4123    7.1483   -5.0457 H   0  0  0  0  0  0  0  0  0  0  0  0
   -2.1430    9.3462   -3.2267 H   0  0  0  0  0  0  0  0  0  0  0  0
   -7.6252    5.2598   -0.7376 H   0  0  0  0  0  0  0  0  0  0  0  0
   -8.8639    6.3803   -1.3867 H   0  0  0  0  0  0  0  0  0  0  0  0
   -5.8529    6.0837   -2.6457 H   0  0  0  0  0  0  0  0  0  0  0  0
  1  2  1  0
  1121  1  0
  2  3  1  0
  2122  1  0
  2123  1  0
  3  4  1  0
  3  5  1  0
  3124  1  0
  4  8  1  0
  5  7  1  0
  5  6  1  0
  5125  1  0
  6 17  1  0
  7  8  1  0
  7126  1  0
  7127  1  0
  8  9  1  0
  8128  1  0
  9 16  1  0
  9 10  1  0
 10 12  1  0
 10 11  2  0
 12 13  2  0
 13 15  1  0
 13 14  1  0
 14129  1  0
 14130  1  0
 15 16  2  0
 15131  1  0
 16132  1  0
 17 20  1  0
 17 19  2  0
 17 18  1  0
 20 21  1  0
 21 22  1  0
 21133  1  0
 21134  1  0
 22 24  1  0
 22 23  1  0
 22135  1  0
 23 27  1  0
 24 25  1  0
 24 26  1  0
 24136  1  0
 25 39  1  0
 26 27  1  0
 26137  1  0
 26138  1  0
 27 28  1  0
 27139  1  0
 28 38  1  0
 28 29  1  0
 29 30  2  0
 29140  1  0
 30 31  1  0
 31 32  1  0
 31 38  2  0
 32 33  2  0
 32 34  1  0
 34 35  2  0
 35 36  1  0
 35 37  1  0
 36141  1  0
 36142  1  0
 37 38  1  0
 37143  1  0
 39 41  2  0
 39 42  1  0
 39 40  1  0
 42 43  1  0
 43 44  1  0
 43144  1  0
 43145  1  0
 44 46  1  0
 44 45  1  0
 44146  1  0
 45 49  1  0
 46 48  1  0
 46 47  1  0
 46147  1  0
 47 59  1  0
 48 49  1  0
 48148  1  0
 48149  1  0
 49 50  1  0
 49150  1  0
 50 51  1  0
 50 58  1  0
 51 53  1  0
 51 52  2  0
 53 54  1  0
 53151  1  0
 54 55  2  0
 54 56  1  0
 56 57  1  0
 56 58  2  0
 57152  1  0
 57153  1  0
 57154  1  0
 58155  1  0
 59 61  2  0
 59 62  1  0
 59 60  1  0
 62 63  1  0
 63 64  1  0
 63156  1  0
 63157  1  0
 64 66  1  0
 64 65  1  0
 64158  1  0
 65 69  1  0
 66 68  1  0
 66 67  1  0
 66159  1  0
 67 80  1  0
 68 69  1  0
 68160  1  0
 68161  1  0
 69 70  1  0
 69162  1  0
 70 79  1  0
 70 71  1  0
 71 72  2  0
 71163  1  0
 72 73  1  0
 73 79  2  0
 73 74  1  0
 74 76  2  0
 74 75  1  0
 75164  1  0
 75165  1  0
 76 77  1  0
 77 78  2  0
 77166  1  0
 78 79  1  0
 80 83  1  0
 80 82  2  0
 80 81  1  0
 83 84  1  0
 84 85  1  0
 84167  1  0
 84168  1  0
 85 87  1  0
 85 86  1  0
 85169  1  0
 86 90  1  0
 87 88  1  0
 87 89  1  0
 87170  1  0
 88 99  1  0
 89 90  1  0
 89171  1  0
 89172  1  0
 90 91  1  0
 90173  1  0
 91 98  1  0
 91 92  1  0
 92 93  2  0
 92 94  1  0
 94 95  2  0
 95 97  1  0
 95 96  1  0
 96174  1  0
 96175  1  0
 97 98  2  0
 97176  1  0
 98177  1  0
 99100  2  0
 99101  1  0
 99102  1  0
102103  1  0
103104  1  0
103178  1  0
103179  1  0
104105  1  0
104106  1  0
104180  1  0
105109  1  0
106108  1  0
106107  1  0
106181  1  0
107182  1  0
108109  1  0
108183  1  0
108184  1  0
109110  1  0
109185  1  0
110111  1  0
110120  1  0
111112  2  0
111186  1  0
112113  1  0
113114  1  0
113120  2  0
114115  2  0
114116  1  0
116117  2  0
117118  1  0
117119  1  0
118187  1  0
118188  1  0
119120  1  0
119189  1  0
M  CHG  5  18  -1  40  -1  60  -1  81  -1 101  -1
M  END
$$$$
