ADENYLATE KINASE
     RDKit          3D

 61 63  0  0  0  0  0  0  0  0999 V2000
    4.7137    2.8470    3.1833 P   0  0  0  0  0  0  0  0  0  0  0  0
    3.4058    3.0073    4.2381 O   0  0  0  0  0  0  0  0  0  0  0  0
    6.3177    2.6288    3.6709 O   0  0  0  0  0  0  0  0  0  0  0  0
    3.8504    4.3003    3.1579 O   0  0  0  0  0  0  0  0  0  0  0  0
    5.3425    3.2298    0.5730 P   0  0  0  0  0  0  0  0  0  0  0  0
    6.7646    2.3041    0.7126 O   0  0  0  0  0  0  0  0  0  0  0  0
    5.7222    4.8229    1.0046 O   0  0  0  0  0  0  0  0  0  0  0  0
    5.5145    2.1739    1.8734 O   0  0  0  0  0  0  0  0  0  0  0  0
    3.1378    3.1198   -1.1723 P   0  0  0  0  0  0  0  0  0  0  0  0
    2.9366    4.7822   -1.3791 O   0  0  0  0  0  0  0  0  0  0  0  0
    2.8555    2.4033   -2.6756 O   0  0  0  0  0  0  0  0  0  0  0  0
    4.7975    3.1413   -1.0143 O   0  0  0  0  0  0  0  0  0  0  0  0
    2.4676    1.5705   -1.3211 O   0  0  0  0  0  0  0  0  0  0  0  0
    1.1783    1.5210   -0.8312 C   0  0  0  0  0  0  0  0  0  0  0  0
    0.6138    0.1055   -0.8873 C   0  0  1  0  0  0  0  0  0  0  0  0
   -0.6678    0.0217   -0.4099 O   0  0  0  0  0  0  0  0  0  0  0  0
    0.6315   -0.4059   -2.2859 C   0  0  1  0  0  0  0  0  0  0  0  0
    1.3085   -1.6166   -2.2855 O   0  0  0  0  0  0  0  0  0  0  0  0
   -0.8317   -0.6981   -2.5491 C   0  0  1  0  0  0  0  0  0  0  0  0
   -0.8466   -1.8218   -3.3731 O   0  0  0  0  0  0  0  0  0  0  0  0
   -1.3462   -0.9361   -1.1670 C   0  0  2  0  0  0  0  0  0  0  0  0
   -2.7314   -0.7170   -0.9526 N   0  0  0  0  0  0  0  0  0  0  0  0
   -2.9880   -0.9716    0.4746 C   0  0  0  0  0  0  0  0  0  0  0  0
   -2.9417   -2.4210    0.5183 N   0  0  0  0  0  0  0  0  0  0  0  0
   -3.7283   -2.8607   -0.6464 C   0  0  0  0  0  0  0  0  0  0  0  0
   -3.1343   -4.1116   -1.1578 C   0  0  2  0  0  0  0  0  0  0  0  0
   -1.9143   -4.5367   -0.4942 N   0  0  0  0  0  0  0  0  0  0  0  0
   -2.9191   -4.1719   -2.5767 N   0  0  0  0  0  0  0  0  0  0  0  0
   -3.7453   -3.2828   -3.3221 C   0  0  0  0  0  0  0  0  0  0  0  0
   -3.4518   -1.9286   -2.9190 N   0  0  0  0  0  0  0  0  0  0  0  0
   -3.6377   -1.6684   -1.5412 C   0  0  0  0  0  0  0  0  0  0  0  0
    4.9790    1.5715    2.6393 H   0  0  0  0  0  0  0  0  0  0  0  0
    2.9060    2.1480    4.2134 H   0  0  0  0  0  0  0  0  0  0  0  0
    6.3694    2.2759    4.5924 H   0  0  0  0  0  0  0  0  0  0  0  0
    3.7405    4.6071    2.2244 H   0  0  0  0  0  0  0  0  0  0  0  0
    5.2795    1.8401    0.8241 H   0  0  0  0  0  0  0  0  0  0  0  0
    7.5339    2.7404    0.2303 H   0  0  0  0  0  0  0  0  0  0  0  0
    6.6615    4.7950    1.3702 H   0  0  0  0  0  0  0  0  0  0  0  0
    4.2475    2.3887   -1.6569 H   0  0  0  0  0  0  0  0  0  0  0  0
    2.6371    4.9495   -2.3054 H   0  0  0  0  0  0  0  0  0  0  0  0
    2.7129    3.0831   -3.4025 H   0  0  0  0  0  0  0  0  0  0  0  0
    0.5613    2.2122   -1.4423 H   0  0  0  0  0  0  0  0  0  0  0  0
    1.1730    1.9217    0.1940 H   0  0  0  0  0  0  0  0  0  0  0  0
    1.2526   -0.4829   -0.1937 H   0  0  0  0  0  0  0  0  0  0  0  0
    1.0481    0.3126   -3.0217 H   0  0  0  0  0  0  0  0  0  0  0  0
    2.1210   -1.6176   -1.7342 H   0  0  0  0  0  0  0  0  0  0  0  0
   -1.3545    0.1632   -3.0153 H   0  0  0  0  0  0  0  0  0  0  0  0
   -0.4567   -1.5579   -4.2344 H   0  0  0  0  0  0  0  0  0  0  0  0
   -0.9749   -1.9175   -0.8134 H   0  0  0  0  0  0  0  0  0  0  0  0
   -3.9764   -0.5466    0.6837 H   0  0  0  0  0  0  0  0  0  0  0  0
   -2.2027   -0.5645    1.1239 H   0  0  0  0  0  0  0  0  0  0  0  0
   -3.3283   -2.8054    1.3990 H   0  0  0  0  0  0  0  0  0  0  0  0
   -4.7483   -3.0127   -0.2316 H   0  0  0  0  0  0  0  0  0  0  0  0
   -3.8599   -4.9530   -0.9447 H   0  0  0  0  0  0  0  0  0  0  0  0
   -1.6302   -3.9545    0.2971 H   0  0  0  0  0  0  0  0  0  0  0  0
   -1.1732   -4.8534   -1.1391 H   0  0  0  0  0  0  0  0  0  0  0  0
   -1.9530   -4.2860   -2.8882 H   0  0  0  0  0  0  0  0  0  0  0  0
   -4.8036   -3.5533   -3.2047 H   0  0  0  0  0  0  0  0  0  0  0  0
   -3.4556   -3.3689   -4.3900 H   0  0  0  0  0  0  0  0  0  0  0  0
   -3.9931   -1.2968   -3.5580 H   0  0  0  0  0  0  0  0  0  0  0  0
   -4.6482   -1.1534   -1.4683 H   0  0  0  0  0  0  0  0  0  0  0  0
  1  2  1  0
  1  3  1  0
  1  4  1  0
  1  8  1  0
  5  6  1  0
  5  7  1  0
  5  8  1  0
  5 12  1  0
  9 10  1  0
  9 11  1  0
  9 12  1  0
  9 13  1  0
 13 14  1  0
 14 15  1  0
 15 16  1  0
 15 17  1  0
 16 21  1  0
 17 18  1  0
 17 19  1  0
 19 20  1  0
 19 21  1  0
 21 22  1  0
 22 23  1  0
 22 31  1  0
 23 24  1  0
 24 25  1  0
 25 26  1  0
 25 31  1  0
 26 27  1  0
 26 28  1  0
 28 29  1  0
 29 30  1  0
 30 31  1  0
  1 32  1  0
  2 33  1  0
  3 34  1  0
  4 35  1  0
  5 36  1  0
  6 37  1  0
  7 38  1  0
  9 39  1  0
 10 40  1  0
 11 41  1  0
 14 42  1  0
 14 43  1  0
 15 44  1  1
 17 45  1  6
 18 46  1  0
 19 47  1  6
 20 48  1  0
 21 49  1  1
 23 50  1  0
 23 51  1  0
 24 52  1  0
 25 53  1  0
 26 54  1  6
 27 55  1  0
 27 56  1  0
 28 57  1  0
 29 58  1  0
 29 59  1  0
 30 60  1  0
 31 61  1  0
M  END
$$$$
ADENYLATE KINASE
     RDKit          3D

 61 63  0  0  0  0  0  0  0  0999 V2000
   -2.4545   -0.1048    4.7627 P   0  0  0  0  0  0  0  0  0  0  0  0
   -3.0743    0.6668    6.1186 O   0  0  0  0  0  0  0  0  0  0  0  0
   -1.5177    1.2637    4.4130 O   0  0  0  0  0  0  0  0  0  0  0  0
   -3.7558   -0.0151    3.7124 O   0  0  0  0  0  0  0  0  0  0  0  0
   -0.6131   -1.9000    3.9038 P   0  0  0  0  0  0  0  0  0  0  0  0
    0.3181   -0.9462    4.9344 O   0  0  0  0  0  0  0  0  0  0  0  0
   -0.2605   -3.4433    4.4881 O   0  0  0  0  0  0  0  0  0  0  0  0
   -1.9158   -1.7047    4.9403 O   0  0  0  0  0  0  0  0  0  0  0  0
   -0.7614   -3.0620    1.4666 P   0  0  0  0  0  0  0  0  0  0  0  0
   -2.4245   -3.2786    1.2538 O   0  0  0  0  0  0  0  0  0  0  0  0
   -0.1221   -4.2642    0.4762 O   0  0  0  0  0  0  0  0  0  0  0  0
   -1.1579   -3.2592    3.1013 O   0  0  0  0  0  0  0  0  0  0  0  0
    0.2926   -2.5984    0.2529 O   0  0  0  0  0  0  0  0  0  0  0  0
    0.9454   -1.3917    0.5479 C   0  0  0  0  0  0  0  0  0  0  0  0
    1.8466   -1.1368   -0.6491 C   0  0  1  0  0  0  0  0  0  0  0  0
    1.0424   -1.0464   -1.7500 O   0  0  0  0  0  0  0  0  0  0  0  0
    2.6114    0.1651   -0.5254 C   0  0  1  0  0  0  0  0  0  0  0  0
    3.8403   -0.0155    0.0996 O   0  0  0  0  0  0  0  0  0  0  0  0
    2.7410    0.5240   -1.9733 C   0  0  1  0  0  0  0  0  0  0  0  0
    3.8730   -0.1478   -2.4386 O   0  0  0  0  0  0  0  0  0  0  0  0
    1.5110   -0.0356   -2.5752 C   0  0  2  0  0  0  0  0  0  0  0  0
    0.5033    0.8648   -2.9864 N   0  0  0  0  0  0  0  0  0  0  0  0
   -0.6753    0.2962   -3.5644 C   0  0  0  0  0  0  0  0  0  0  0  0
   -1.8180    1.0601   -3.0423 N   0  0  0  0  0  0  0  0  0  0  0  0
   -1.3200    1.5287   -1.7920 C   0  0  0  0  0  0  0  0  0  0  0  0
   -2.0315    2.7226   -1.2236 C   0  0  2  0  0  0  0  0  0  0  0  0
   -3.4218    2.4634   -1.0261 N   0  0  0  0  0  0  0  0  0  0  0  0
   -1.8484    3.9258   -1.9741 N   0  0  0  0  0  0  0  0  0  0  0  0
   -0.4403    4.1936   -2.1954 C   0  0  0  0  0  0  0  0  0  0  0  0
    0.0619    3.1397   -3.0293 N   0  0  0  0  0  0  0  0  0  0  0  0
    0.1037    1.9296   -2.1924 C   0  0  0  0  0  0  0  0  0  0  0  0
   -3.0075    1.1401    4.3780 H   0  0  0  0  0  0  0  0  0  0  0  0
   -3.1125    0.0311    6.8809 H   0  0  0  0  0  0  0  0  0  0  0  0
   -0.6233    1.1912    4.8162 H   0  0  0  0  0  0  0  0  0  0  0  0
   -4.2937   -0.8323    3.7992 H   0  0  0  0  0  0  0  0  0  0  0  0
   -1.6176   -2.8268    4.2195 H   0  0  0  0  0  0  0  0  0  0  0  0
    1.1900   -1.4070    5.0230 H   0  0  0  0  0  0  0  0  0  0  0  0
    0.5819   -3.4879    5.0169 H   0  0  0  0  0  0  0  0  0  0  0  0
   -1.1521   -2.7541    0.1520 H   0  0  0  0  0  0  0  0  0  0  0  0
   -2.6763   -4.2500    1.2981 H   0  0  0  0  0  0  0  0  0  0  0  0
   -0.0321   -5.1174    1.0026 H   0  0  0  0  0  0  0  0  0  0  0  0
    0.2370   -0.5676    0.6951 H   0  0  0  0  0  0  0  0  0  0  0  0
    1.6076   -1.5469    1.4387 H   0  0  0  0  0  0  0  0  0  0  0  0
    2.5900   -1.9501   -0.6853 H   0  0  0  0  0  0  0  0  0  0  0  0
    2.0062    0.8215    0.0917 H   0  0  0  0  0  0  0  0  0  0  0  0
    4.1792    0.9208    0.2679 H   0  0  0  0  0  0  0  0  0  0  0  0
    2.9292    1.5847   -2.1684 H   0  0  0  0  0  0  0  0  0  0  0  0
    3.6446   -0.8921   -3.0489 H   0  0  0  0  0  0  0  0  0  0  0  0
    1.8168   -0.5813   -3.5170 H   0  0  0  0  0  0  0  0  0  0  0  0
   -0.8152   -0.7863   -3.3714 H   0  0  0  0  0  0  0  0  0  0  0  0
   -0.7016    0.4129   -4.6747 H   0  0  0  0  0  0  0  0  0  0  0  0
   -2.0912    1.8412   -3.6571 H   0  0  0  0  0  0  0  0  0  0  0  0
   -1.2457    0.7332   -1.0472 H   0  0  0  0  0  0  0  0  0  0  0  0
   -1.5661    2.9039   -0.2187 H   0  0  0  0  0  0  0  0  0  0  0  0
   -3.7257    2.6508   -0.0289 H   0  0  0  0  0  0  0  0  0  0  0  0
   -3.7210    1.5116   -1.2678 H   0  0  0  0  0  0  0  0  0  0  0  0
   -2.1800    4.7168   -1.3447 H   0  0  0  0  0  0  0  0  0  0  0  0
   -0.2605    5.2064   -2.5739 H   0  0  0  0  0  0  0  0  0  0  0  0
    0.0504    4.1178   -1.2046 H   0  0  0  0  0  0  0  0  0  0  0  0
   -0.4342    3.0044   -3.9155 H   0  0  0  0  0  0  0  0  0  0  0  0
    0.6246    2.2092   -1.2951 H   0  0  0  0  0  0  0  0  0  0  0  0
  1  2  1  0
  1  3  1  0
  1  4  1  0
  1  8  1  0
  5  6  1  0
  5  7  1  0
  5  8  1  0
  5 12  1  0
  9 10  1  0
  9 11  1  0
  9 12  1  0
  9 13  1  0
 13 14  1  0
 14 15  1  0
 15 16  1  0
 15 17  1  0
 16 21  1  0
 17 18  1  0
 17 19  1  0
 19 20  1  0
 19 21  1  0
 21 22  1  0
 22 23  1  0
 22 31  1  0
 23 24  1  0
 24 25  1  0
 25 26  1  0
 25 31  1  0
 26 27  1  0
 26 28  1  0
 28 29  1  0
 29 30  1  0
 30 31  1  0
  1 32  1  0
  2 33  1  0
  3 34  1  0
  4 35  1  0
  5 36  1  0
  6 37  1  0
  7 38  1  0
  9 39  1  0
 10 40  1  0
 11 41  1  0
 14 42  1  0
 14 43  1  0
 15 44  1  6
 17 45  1  1
 18 46  1  0
 19 47  1  1
 20 48  1  0
 21 49  1  6
 23 50  1  0
 23 51  1  0
 24 52  1  0
 25 53  1  0
 26 54  1  1
 27 55  1  0
 27 56  1  0
 28 57  1  0
 29 58  1  0
 29 59  1  0
 30 60  1  0
 31 61  1  0
M  END
$$$$
ADENYLATE KINASE
     RDKit          3D

 61 63  0  0  0  0  0  0  0  0999 V2000
   -1.0039    1.8695   -3.8000 P   0  0  0  0  0  0  0  0  0  0  0  0
   -1.2794    0.2062   -3.8669 O   0  0  0  0  0  0  0  0  0  0  0  0
   -1.8564    2.7913   -4.9610 O   0  0  0  0  0  0  0  0  0  0  0  0
    0.5435    1.9201   -4.4996 O   0  0  0  0  0  0  0  0  0  0  0  0
   -2.2742    3.3271   -1.7940 P   0  0  0  0  0  0  0  0  0  0  0  0
   -2.3338    5.0283   -1.7550 O   0  0  0  0  0  0  0  0  0  0  0  0
   -0.7418    2.8641   -1.1974 O   0  0  0  0  0  0  0  0  0  0  0  0
   -1.6682    3.3566   -3.3581 O   0  0  0  0  0  0  0  0  0  0  0  0
   -3.5500    1.3222   -0.2888 P   0  0  0  0  0  0  0  0  0  0  0  0
   -3.6314    0.7257   -1.8671 O   0  0  0  0  0  0  0  0  0  0  0  0
   -4.9653    2.2481   -0.0889 O   0  0  0  0  0  0  0  0  0  0  0  0
   -2.1455    1.8752   -0.9825 O   0  0  0  0  0  0  0  0  0  0  0  0
   -2.5793    0.4385    0.7580 O   0  0  0  0  0  0  0  0  0  0  0  0
   -3.3082   -0.3296    1.6321 C   0  0  0  0  0  0  0  0  0  0  0  0
   -2.3328   -1.0751    2.5200 C   0  0  1  0  0  0  0  0  0  0  0  0
   -1.4862   -1.8963    1.8298 O   0  0  0  0  0  0  0  0  0  0  0  0
   -1.4895   -0.1092    3.2998 C   0  0  1  0  0  0  0  0  0  0  0  0
   -1.1658   -0.7046    4.5113 O   0  0  0  0  0  0  0  0  0  0  0  0
   -0.2523   -0.0212    2.4510 C   0  0  1  0  0  0  0  0  0  0  0  0
    0.8285    0.1375    3.3463 O   0  0  0  0  0  0  0  0  0  0  0  0
   -0.2198   -1.3620    1.7979 C   0  0  2  0  0  0  0  0  0  0  0  0
    0.3101   -1.3672    0.4540 N   0  0  0  0  0  0  0  0  0  0  0  0
    0.3116   -2.6995   -0.1165 C   0  0  0  0  0  0  0  0  0  0  0  0
    1.6949   -3.1617   -0.1275 N   0  0  0  0  0  0  0  0  0  0  0  0
    2.3990   -2.2217    0.7524 C   0  0  0  0  0  0  0  0  0  0  0  0
    3.8576   -2.1182    0.4108 C   0  0  2  0  0  0  0  0  0  0  0  0
    4.6747   -2.7963    1.4060 N   0  0  0  0  0  0  0  0  0  0  0  0
    4.2191   -0.7363    0.3568 N   0  0  0  0  0  0  0  0  0  0  0  0
    3.5124    0.1024    1.2671 C   0  0  0  0  0  0  0  0  0  0  0  0
    2.0921    0.2077    0.9869 N   0  0  0  0  0  0  0  0  0  0  0  0
    1.6638   -0.9722    0.3510 C   0  0  0  0  0  0  0  0  0  0  0  0
    0.1659    2.0661   -3.0551 H   0  0  0  0  0  0  0  0  0  0  0  0
   -2.1945    0.0944   -4.2753 H   0  0  0  0  0  0  0  0  0  0  0  0
   -1.5226    2.5880   -5.8498 H   0  0  0  0  0  0  0  0  0  0  0  0
    0.4906    1.6371   -5.4669 H   0  0  0  0  0  0  0  0  0  0  0  0
   -3.5350    3.9282   -1.5853 H   0  0  0  0  0  0  0  0  0  0  0  0
   -1.5756    5.2849   -1.1430 H   0  0  0  0  0  0  0  0  0  0  0  0
   -0.3327    3.6751   -0.8233 H   0  0  0  0  0  0  0  0  0  0  0  0
   -3.5670    2.5728    0.3689 H   0  0  0  0  0  0  0  0  0  0  0  0
   -4.5960    0.6635   -2.1166 H   0  0  0  0  0  0  0  0  0  0  0  0
   -5.6611    1.6738   -0.5088 H   0  0  0  0  0  0  0  0  0  0  0  0
   -3.8820   -1.0708    1.0561 H   0  0  0  0  0  0  0  0  0  0  0  0
   -3.9284    0.3138    2.2712 H   0  0  0  0  0  0  0  0  0  0  0  0
   -2.9831   -1.6308    3.2540 H   0  0  0  0  0  0  0  0  0  0  0  0
   -1.9840    0.8725    3.4428 H   0  0  0  0  0  0  0  0  0  0  0  0
   -0.2080   -0.9358    4.5627 H   0  0  0  0  0  0  0  0  0  0  0  0
   -0.2638    0.8203    1.7409 H   0  0  0  0  0  0  0  0  0  0  0  0
    1.0078    1.0827    3.5389 H   0  0  0  0  0  0  0  0  0  0  0  0
    0.4161   -2.0199    2.4219 H   0  0  0  0  0  0  0  0  0  0  0  0
   -0.1180   -2.6745   -1.1520 H   0  0  0  0  0  0  0  0  0  0  0  0
   -0.2819   -3.4101    0.4924 H   0  0  0  0  0  0  0  0  0  0  0  0
    2.0825   -2.9606   -1.0984 H   0  0  0  0  0  0  0  0  0  0  0  0
    2.2855   -2.5320    1.7860 H   0  0  0  0  0  0  0  0  0  0  0  0
    4.0407   -2.6186   -0.5535 H   0  0  0  0  0  0  0  0  0  0  0  0
    4.4108   -3.7895    1.5119 H   0  0  0  0  0  0  0  0  0  0  0  0
    4.6594   -2.3538    2.3389 H   0  0  0  0  0  0  0  0  0  0  0  0
    4.3798   -0.3427   -0.5746 H   0  0  0  0  0  0  0  0  0  0  0  0
    3.6442   -0.2683    2.2963 H   0  0  0  0  0  0  0  0  0  0  0  0
    4.0207    1.1083    1.2305 H   0  0  0  0  0  0  0  0  0  0  0  0
    1.9883    1.0203    0.3384 H   0  0  0  0  0  0  0  0  0  0  0  0
    1.8732   -0.8524   -0.7532 H   0  0  0  0  0  0  0  0  0  0  0  0
  1  2  1  0
  1  3  1  0
  1  4  1  0
  1  8  1  0
  5  6  1  0
  5  7  1  0
  5  8  1  0
  5 12  1  0
  9 10  1  0
  9 11  1  0
  9 12  1  0
  9 13  1  0
 13 14  1  0
 14 15  1  0
 15 16  1  0
 15 17  1  0
 16 21  1  0
 17 18  1  0
 17 19  1  0
 19 20  1  0
 19 21  1  0
 21 22  1  0
 22 23  1  0
 22 31  1  0
 23 24  1  0
 24 25  1  0
 25 26  1  0
 25 31  1  0
 26 27  1  0
 26 28  1  0
 28 29  1  0
 29 30  1  0
 30 31  1  0
  1 32  1  0
  2 33  1  0
  3 34  1  0
  4 35  1  0
  5 36  1  0
  6 37  1  0
  7 38  1  0
  9 39  1  0
 10 40  1  0
 11 41  1  0
 14 42  1  0
 14 43  1  0
 15 44  1  1
 17 45  1  1
 18 46  1  0
 19 47  1  6
 20 48  1  0
 21 49  1  1
 23 50  1  0
 23 51  1  0
 24 52  1  0
 25 53  1  0
 26 54  1  6
 27 55  1  0
 27 56  1  0
 28 57  1  0
 29 58  1  0
 29 59  1  0
 30 60  1  0
 31 61  1  0
M  END
$$$$
ADENYLATE KINASE
     RDKit          3D

 61 63  0  0  0  0  0  0  0  0999 V2000
   -1.2366   -1.0726    7.0082 P   0  0  0  0  0  0  0  0  0  0  0  0
    0.0316   -1.9995    7.6790 O   0  0  0  0  0  0  0  0  0  0  0  0
   -1.7431   -2.3453    6.0384 O   0  0  0  0  0  0  0  0  0  0  0  0
   -0.7844    0.5656    6.9254 O   0  0  0  0  0  0  0  0  0  0  0  0
   -1.3478   -0.0978    4.3738 P   0  0  0  0  0  0  0  0  0  0  0  0
   -0.0521    0.9498    4.1180 O   0  0  0  0  0  0  0  0  0  0  0  0
   -2.7815    0.6507    3.9125 O   0  0  0  0  0  0  0  0  0  0  0  0
   -2.1144   -0.2677    5.8395 O   0  0  0  0  0  0  0  0  0  0  0  0
    0.2026   -1.2085    2.4614 P   0  0  0  0  0  0  0  0  0  0  0  0
   -0.5136   -2.5104    1.6674 O   0  0  0  0  0  0  0  0  0  0  0  0
   -0.5186    0.0425    1.6087 O   0  0  0  0  0  0  0  0  0  0  0  0
    0.2275   -0.6096    4.0547 O   0  0  0  0  0  0  0  0  0  0  0  0
    0.7816   -0.5898    0.9758 O   0  0  0  0  0  0  0  0  0  0  0  0
    2.0569   -1.0810    0.7791 C   0  0  0  0  0  0  0  0  0  0  0  0
    2.6911   -0.6082   -0.5084 C   0  0  1  0  0  0  0  0  0  0  0  0
    2.0148   -0.9546   -1.6427 O   0  0  0  0  0  0  0  0  0  0  0  0
    2.6895    0.9241   -0.5733 C   0  0  1  0  0  0  0  0  0  0  0  0
    3.5428    1.5046    0.3159 O   0  0  0  0  0  0  0  0  0  0  0  0
    3.1286    1.0510   -2.0341 C   0  0  1  0  0  0  0  0  0  0  0  0
    4.4057    0.5214   -2.2100 O   0  0  0  0  0  0  0  0  0  0  0  0
    2.1658    0.0284   -2.6082 C   0  0  2  0  0  0  0  0  0  0  0  0
    0.9163    0.7356   -2.8105 N   0  0  0  0  0  0  0  0  0  0  0  0
    1.0552    1.8422   -3.7169 C   0  0  0  0  0  0  0  0  0  0  0  0
   -0.1981    1.9445   -4.4757 N   0  0  0  0  0  0  0  0  0  0  0  0
   -1.0951    0.9988   -3.8400 C   0  0  0  0  0  0  0  0  0  0  0  0
   -1.6849    1.6633   -2.6313 C   0  0  2  0  0  0  0  0  0  0  0  0
   -0.9651    2.8665   -2.2571 N   0  0  0  0  0  0  0  0  0  0  0  0
   -1.6214    0.7856   -1.4631 N   0  0  0  0  0  0  0  0  0  0  0  0
   -1.9181   -0.5468   -1.9260 C   0  0  0  0  0  0  0  0  0  0  0  0
   -0.6971   -1.0471   -2.5325 N   0  0  0  0  0  0  0  0  0  0  0  0
   -0.1039   -0.0634   -3.4070 C   0  0  0  0  0  0  0  0  0  0  0  0
   -2.1363   -1.1104    8.0929 H   0  0  0  0  0  0  0  0  0  0  0  0
    0.6547   -2.1756    6.9210 H   0  0  0  0  0  0  0  0  0  0  0  0
   -1.0158   -2.6261    5.4262 H   0  0  0  0  0  0  0  0  0  0  0  0
    0.1665    0.5960    6.6110 H   0  0  0  0  0  0  0  0  0  0  0  0
   -2.1907   -0.8458    3.5250 H   0  0  0  0  0  0  0  0  0  0  0  0
   -0.4435    1.8574    3.9690 H   0  0  0  0  0  0  0  0  0  0  0  0
   -2.5363    1.5872    3.6648 H   0  0  0  0  0  0  0  0  0  0  0  0
    0.4246   -1.9574    3.6161 H   0  0  0  0  0  0  0  0  0  0  0  0
   -1.3266   -2.7738    2.1387 H   0  0  0  0  0  0  0  0  0  0  0  0
   -1.4142    0.2556    1.9887 H   0  0  0  0  0  0  0  0  0  0  0  0
    2.7112   -0.7237    1.5950 H   0  0  0  0  0  0  0  0  0  0  0  0
    2.0396   -2.1727    0.7365 H   0  0  0  0  0  0  0  0  0  0  0  0
    3.7467   -0.9020   -0.4890 H   0  0  0  0  0  0  0  0  0  0  0  0
    1.6407    1.2543   -0.5239 H   0  0  0  0  0  0  0  0  0  0  0  0
    3.0555    1.9972    1.0492 H   0  0  0  0  0  0  0  0  0  0  0  0
    3.0166    2.0525   -2.4414 H   0  0  0  0  0  0  0  0  0  0  0  0
    4.9525    0.8336   -1.4392 H   0  0  0  0  0  0  0  0  0  0  0  0
    2.4747   -0.3694   -3.5867 H   0  0  0  0  0  0  0  0  0  0  0  0
    1.8786    1.5942   -4.4189 H   0  0  0  0  0  0  0  0  0  0  0  0
    1.2425    2.7698   -3.1409 H   0  0  0  0  0  0  0  0  0  0  0  0
   -0.5575    2.9340   -4.3538 H   0  0  0  0  0  0  0  0  0  0  0  0
   -1.8555    0.6010   -4.5357 H   0  0  0  0  0  0  0  0  0  0  0  0
   -2.7393    1.9774   -2.7813 H   0  0  0  0  0  0  0  0  0  0  0  0
   -1.4481    3.7466   -2.5694 H   0  0  0  0  0  0  0  0  0  0  0  0
   -0.8822    2.9711   -1.2171 H   0  0  0  0  0  0  0  0  0  0  0  0
   -2.2478    1.1262   -0.7261 H   0  0  0  0  0  0  0  0  0  0  0  0
   -2.7223   -0.4518   -2.6924 H   0  0  0  0  0  0  0  0  0  0  0  0
   -2.2047   -1.2497   -1.1359 H   0  0  0  0  0  0  0  0  0  0  0  0
   -0.9864   -1.8728   -3.1351 H   0  0  0  0  0  0  0  0  0  0  0  0
    0.2794   -0.5650   -4.3221 H   0  0  0  0  0  0  0  0  0  0  0  0
  1  2  1  0
  1  3  1  0
  1  4  1  0
  1  8  1  0
  5  6  1  0
  5  7  1  0
  5  8  1  0
  5 12  1  0
  9 10  1  0
  9 11  1  0
  9 12  1  0
  9 13  1  0
 13 14  1  0
 14 15  1  0
 15 16  1  0
 15 17  1  0
 16 21  1  0
 17 18  1  0
 17 19  1  0
 19 20  1  0
 19 21  1  0
 21 22  1  0
 22 23  1  0
 22 31  1  0
 23 24  1  0
 24 25  1  0
 25 26  1  0
 25 31  1  0
 26 27  1  0
 26 28  1  0
 28 29  1  0
 29 30  1  0
 30 31  1  0
  1 32  1  0
  2 33  1  0
  3 34  1  0
  4 35  1  0
  5 36  1  0
  6 37  1  0
  7 38  1  0
  9 39  1  0
 10 40  1  0
 11 41  1  0
 14 42  1  0
 14 43  1  0
 15 44  1  6
 17 45  1  6
 18 46  1  0
 19 47  1  6
 20 48  1  0
 21 49  1  6
 23 50  1  0
 23 51  1  0
 24 52  1  0
 25 53  1  0
 26 54  1  6
 27 55  1  0
 27 56  1  0
 28 57  1  0
 29 58  1  0
 29 59  1  0
 30 60  1  0
 31 61  1  0
M  END
$$$$
ADENYLATE KINASE
     RDKit          3D

 61 63  0  0  0  0  0  0  0  0999 V2000
   -1.7432   -2.3850    4.1911 P   0  0  0  0  0  0  0  0  0  0  0  0
   -1.7255   -0.7480    4.6414 O   0  0  0  0  0  0  0  0  0  0  0  0
   -3.2345   -3.1642    4.4725 O   0  0  0  0  0  0  0  0  0  0  0  0
   -1.9590   -3.4524    2.9212 O   0  0  0  0  0  0  0  0  0  0  0  0
    0.4765   -3.8561    4.4622 P   0  0  0  0  0  0  0  0  0  0  0  0
    1.7036   -4.8393    3.9334 O   0  0  0  0  0  0  0  0  0  0  0  0
   -0.0350   -4.3778    5.9592 O   0  0  0  0  0  0  0  0  0  0  0  0
   -0.7232   -3.1219    5.3523 O   0  0  0  0  0  0  0  0  0  0  0  0
    0.8906   -1.8525    2.7098 P   0  0  0  0  0  0  0  0  0  0  0  0
    2.5233   -2.0694    2.4323 O   0  0  0  0  0  0  0  0  0  0  0  0
    1.0532   -0.2505    3.1661 O   0  0  0  0  0  0  0  0  0  0  0  0
    1.6353   -2.7414    3.9390 O   0  0  0  0  0  0  0  0  0  0  0  0
    0.2543   -1.4593    1.1939 O   0  0  0  0  0  0  0  0  0  0  0  0
    1.2125   -1.5444    0.1976 C   0  0  0  0  0  0  0  0  0  0  0  0
    0.5399   -1.2418   -1.1479 C   0  0  1  0  0  0  0  0  0  0  0  0
    0.0165    0.0297   -1.0773 O   0  0  0  0  0  0  0  0  0  0  0  0
    1.5910   -1.2365   -2.2434 C   0  0  1  0  0  0  0  0  0  0  0  0
    1.0755   -1.9386   -3.3167 O   0  0  0  0  0  0  0  0  0  0  0  0
    1.6066    0.2326   -2.6138 C   0  0  1  0  0  0  0  0  0  0  0  0
    1.9741    0.4525   -3.9310 O   0  0  0  0  0  0  0  0  0  0  0  0
    0.1477    0.5496   -2.3601 C   0  0  2  0  0  0  0  0  0  0  0  0
   -0.1400    1.9191   -2.5085 N   0  0  0  0  0  0  0  0  0  0  0  0
    0.5482    2.8370   -1.6613 C   0  0  0  0  0  0  0  0  0  0  0  0
   -0.3222    4.0190   -1.5394 N   0  0  0  0  0  0  0  0  0  0  0  0
   -1.4655    3.7296   -2.3910 C   0  0  0  0  0  0  0  0  0  0  0  0
   -2.7563    4.2898   -1.9154 C   0  0  2  0  0  0  0  0  0  0  0  0
   -2.6059    4.9647   -0.6393 N   0  0  0  0  0  0  0  0  0  0  0  0
   -3.7092    3.2224   -1.7578 N   0  0  0  0  0  0  0  0  0  0  0  0
   -3.7452    2.3056   -2.8692 C   0  0  0  0  0  0  0  0  0  0  0  0
   -2.4808    1.6098   -3.0615 N   0  0  0  0  0  0  0  0  0  0  0  0
   -1.5108    2.2049   -2.2058 C   0  0  0  0  0  0  0  0  0  0  0  0
   -1.8769   -3.0415    5.4332 H   0  0  0  0  0  0  0  0  0  0  0  0
   -1.6658   -0.1331    3.8738 H   0  0  0  0  0  0  0  0  0  0  0  0
   -3.9949   -2.5328    4.3710 H   0  0  0  0  0  0  0  0  0  0  0  0
   -2.2142   -2.9344    2.1401 H   0  0  0  0  0  0  0  0  0  0  0  0
   -0.1935   -4.8663    3.7187 H   0  0  0  0  0  0  0  0  0  0  0  0
    1.9504   -5.4081    4.7317 H   0  0  0  0  0  0  0  0  0  0  0  0
    0.4676   -5.2195    6.2047 H   0  0  0  0  0  0  0  0  0  0  0  0
   -0.0109   -0.8424    2.2868 H   0  0  0  0  0  0  0  0  0  0  0  0
    2.9711   -1.3687    1.9157 H   0  0  0  0  0  0  0  0  0  0  0  0
    1.5491   -0.1268    3.9986 H   0  0  0  0  0  0  0  0  0  0  0  0
    1.8843   -0.6509    0.3569 H   0  0  0  0  0  0  0  0  0  0  0  0
    1.8006   -2.4607    0.1867 H   0  0  0  0  0  0  0  0  0  0  0  0
   -0.2920   -1.9497   -1.3605 H   0  0  0  0  0  0  0  0  0  0  0  0
    2.5822   -1.5910   -1.9072 H   0  0  0  0  0  0  0  0  0  0  0  0
    1.0707   -2.9231   -3.1688 H   0  0  0  0  0  0  0  0  0  0  0  0
    2.2349    0.7834   -1.8889 H   0  0  0  0  0  0  0  0  0  0  0  0
    2.4793    1.3261   -3.9366 H   0  0  0  0  0  0  0  0  0  0  0  0
   -0.5060   -0.0229   -3.0242 H   0  0  0  0  0  0  0  0  0  0  0  0
    1.4525    3.1724   -2.2105 H   0  0  0  0  0  0  0  0  0  0  0  0
    0.7565    2.4056   -0.6700 H   0  0  0  0  0  0  0  0  0  0  0  0
    0.1254    4.8799   -1.9022 H   0  0  0  0  0  0  0  0  0  0  0  0
   -1.2586    3.9230   -3.4501 H   0  0  0  0  0  0  0  0  0  0  0  0
   -3.1304    5.0055   -2.6911 H   0  0  0  0  0  0  0  0  0  0  0  0
   -2.4151    5.9870   -0.8132 H   0  0  0  0  0  0  0  0  0  0  0  0
   -3.5406    4.9051   -0.1759 H   0  0  0  0  0  0  0  0  0  0  0  0
   -3.6032    2.6900   -0.8871 H   0  0  0  0  0  0  0  0  0  0  0  0
   -4.4778    1.5065   -2.5687 H   0  0  0  0  0  0  0  0  0  0  0  0
   -4.0826    2.7426   -3.8153 H   0  0  0  0  0  0  0  0  0  0  0  0
   -2.1632    1.6535   -4.0361 H   0  0  0  0  0  0  0  0  0  0  0  0
   -1.6943    2.0037   -1.1225 H   0  0  0  0  0  0  0  0  0  0  0  0
  1  2  1  0
  1  3  1  0
  1  4  1  0
  1  8  1  0
  5  6  1  0
  5  7  1  0
  5  8  1  0
  5 12  1  0
  9 10  1  0
  9 11  1  0
  9 12  1  0
  9 13  1  0
 13 14  1  0
 14 15  1  0
 15 16  1  0
 15 17  1  0
 16 21  1  0
 17 18  1  0
 17 19  1  0
 19 20  1  0
 19 21  1  0
 21 22  1  0
 22 23  1  0
 22 31  1  0
 23 24  1  0
 24 25  1  0
 25 26  1  0
 25 31  1  0
 26 27  1  0
 26 28  1  0
 28 29  1  0
 29 30  1  0
 30 31  1  0
  1 32  1  0
  2 33  1  0
  3 34  1  0
  4 35  1  0
  5 36  1  0
  6 37  1  0
  7 38  1  0
  9 39  1  0
 10 40  1  0
 11 41  1  0
 14 42  1  0
 14 43  1  0
 15 44  1  6
 17 45  1  1
 18 46  1  0
 19 47  1  1
 20 48  1  0
 21 49  1  6
 23 50  1  0
 23 51  1  0
 24 52  1  0
 25 53  1  0
 26 54  1  6
 27 55  1  0
 27 56  1  0
 28 57  1  0
 29 58  1  0
 29 59  1  0
 30 60  1  0
 31 61  1  0
M  END
$$$$
ADENYLATE KINASE
     RDKit          3D

 61 63  0  0  0  0  0  0  0  0999 V2000
    1.5941    0.8425    3.6790 P   0  0  0  0  0  0  0  0  0  0  0  0
    1.7627    1.3237    5.3060 O   0  0  0  0  0  0  0  0  0  0  0  0
    2.8843   -0.2340    3.6423 O   0  0  0  0  0  0  0  0  0  0  0  0
    0.1705   -0.0679    3.8294 O   0  0  0  0  0  0  0  0  0  0  0  0
    2.8169    1.6773    1.2928 P   0  0  0  0  0  0  0  0  0  0  0  0
    2.1524    2.3357   -0.1402 O   0  0  0  0  0  0  0  0  0  0  0  0
    3.5798    3.0059    1.9289 O   0  0  0  0  0  0  0  0  0  0  0  0
    1.4199    1.6689    2.2321 O   0  0  0  0  0  0  0  0  0  0  0  0
    2.7560   -0.6597    0.0344 P   0  0  0  0  0  0  0  0  0  0  0  0
    3.9680    0.1174   -0.8112 O   0  0  0  0  0  0  0  0  0  0  0  0
    3.4314   -2.2106   -0.1303 O   0  0  0  0  0  0  0  0  0  0  0  0
    1.7526    0.5872    0.6430 O   0  0  0  0  0  0  0  0  0  0  0  0
    1.1121   -0.8773    0.1846 O   0  0  0  0  0  0  0  0  0  0  0  0
    0.7052   -2.0375   -0.4551 C   0  0  0  0  0  0  0  0  0  0  0  0
   -0.8098   -2.2364   -0.3154 C   0  0  1  0  0  0  0  0  0  0  0  0
   -1.4254   -1.1435   -0.8921 O   0  0  0  0  0  0  0  0  0  0  0  0
   -1.1629   -3.4677   -1.1351 C   0  0  1  0  0  0  0  0  0  0  0  0
   -2.3351   -4.0239   -0.6159 O   0  0  0  0  0  0  0  0  0  0  0  0
   -1.4838   -2.7673   -2.4715 C   0  0  1  0  0  0  0  0  0  0  0  0
   -2.2749   -3.6543   -3.1921 O   0  0  0  0  0  0  0  0  0  0  0  0
   -2.2337   -1.5981   -1.9266 C   0  0  2  0  0  0  0  0  0  0  0  0
   -2.4710   -0.5793   -2.8710 N   0  0  0  0  0  0  0  0  0  0  0  0
   -1.2639    0.0367   -3.3588 C   0  0  0  0  0  0  0  0  0  0  0  0
   -0.8631    0.8988   -2.2605 N   0  0  0  0  0  0  0  0  0  0  0  0
   -2.1158    1.3381   -1.6422 C   0  0  0  0  0  0  0  0  0  0  0  0
   -2.2387    2.8233   -1.6538 C   0  0  2  0  0  0  0  0  0  0  0  0
   -2.9695    3.2618   -0.4760 N   0  0  0  0  0  0  0  0  0  0  0  0
   -2.7706    3.3935   -2.8535 N   0  0  0  0  0  0  0  0  0  0  0  0
   -3.8477    2.6618   -3.4411 C   0  0  0  0  0  0  0  0  0  0  0  0
   -3.6602    1.2636   -3.5392 N   0  0  0  0  0  0  0  0  0  0  0  0
   -3.1734    0.5852   -2.3682 C   0  0  0  0  0  0  0  0  0  0  0  0
    1.5050   -0.4244    4.3054 H   0  0  0  0  0  0  0  0  0  0  0  0
    2.2938    2.1766    5.3309 H   0  0  0  0  0  0  0  0  0  0  0  0
    3.6432    0.2392    3.2359 H   0  0  0  0  0  0  0  0  0  0  0  0
   -0.5487    0.2793    3.2283 H   0  0  0  0  0  0  0  0  0  0  0  0
    1.4153    1.7908    1.1161 H   0  0  0  0  0  0  0  0  0  0  0  0
    2.7418    3.0420   -0.5284 H   0  0  0  0  0  0  0  0  0  0  0  0
    2.8808    3.7341    1.8708 H   0  0  0  0  0  0  0  0  0  0  0  0
    2.6965   -0.7860   -1.3621 H   0  0  0  0  0  0  0  0  0  0  0  0
    4.0607    1.0151   -0.4185 H   0  0  0  0  0  0  0  0  0  0  0  0
    3.1407   -2.6841    0.7130 H   0  0  0  0  0  0  0  0  0  0  0  0
    1.2021   -2.9516   -0.0742 H   0  0  0  0  0  0  0  0  0  0  0  0
    0.9594   -1.9279   -1.5243 H   0  0  0  0  0  0  0  0  0  0  0  0
   -1.0677   -2.4233    0.7310 H   0  0  0  0  0  0  0  0  0  0  0  0
   -0.3418   -4.1854   -1.2295 H   0  0  0  0  0  0  0  0  0  0  0  0
   -2.8239   -3.3347   -0.0734 H   0  0  0  0  0  0  0  0  0  0  0  0
   -0.5185   -2.5682   -2.9261 H   0  0  0  0  0  0  0  0  0  0  0  0
   -1.7691   -4.5233   -3.1990 H   0  0  0  0  0  0  0  0  0  0  0  0
   -3.2114   -1.9790   -1.5528 H   0  0  0  0  0  0  0  0  0  0  0  0
   -0.5467   -0.7202   -3.6431 H   0  0  0  0  0  0  0  0  0  0  0  0
   -1.5900    0.6751   -4.2282 H   0  0  0  0  0  0  0  0  0  0  0  0
   -0.4465    1.7439   -2.7085 H   0  0  0  0  0  0  0  0  0  0  0  0
   -2.1239    1.0429   -0.5508 H   0  0  0  0  0  0  0  0  0  0  0  0
   -1.1945    3.2401   -1.5371 H   0  0  0  0  0  0  0  0  0  0  0  0
   -3.9325    3.5913   -0.6773 H   0  0  0  0  0  0  0  0  0  0  0  0
   -2.4185    3.8459    0.1730 H   0  0  0  0  0  0  0  0  0  0  0  0
   -2.0722    3.7866   -3.5124 H   0  0  0  0  0  0  0  0  0  0  0  0
   -3.9864    3.0420   -4.4760 H   0  0  0  0  0  0  0  0  0  0  0  0
   -4.7769    2.9512   -2.8865 H   0  0  0  0  0  0  0  0  0  0  0  0
   -4.5848    0.8353   -3.8032 H   0  0  0  0  0  0  0  0  0  0  0  0
   -3.9922    0.3049   -1.6708 H   0  0  0  0  0  0  0  0  0  0  0  0
  1  2  1  0
  1  3  1  0
  1  4  1  0
  1  8  1  0
  5  6  1  0
  5  7  1  0
  5  8  1  0
  5 12  1  0
  9 10  1  0
  9 11  1  0
  9 12  1  0
  9 13  1  0
 13 14  1  0
 14 15  1  0
 15 16  1  0
 15 17  1  0
 16 21  1  0
 17 18  1  0
 17 19  1  0
 19 20  1  0
 19 21  1  0
 21 22  1  0
 22 23  1  0
 22 31  1  0
 23 24  1  0
 24 25  1  0
 25 26  1  0
 25 31  1  0
 26 27  1  0
 26 28  1  0
 28 29  1  0
 29 30  1  0
 30 31  1  0
  1 32  1  0
  2 33  1  0
  3 34  1  0
  4 35  1  0
  5 36  1  0
  6 37  1  0
  7 38  1  0
  9 39  1  0
 10 40  1  0
 11 41  1  0
 14 42  1  0
 14 43  1  0
 15 44  1  1
 17 45  1  6
 18 46  1  0
 19 47  1  6
 20 48  1  0
 21 49  1  1
 23 50  1  0
 23 51  1  0
 24 52  1  0
 25 53  1  0
 26 54  1  1
 27 55  1  0
 27 56  1  0
 28 57  1  0
 29 58  1  0
 29 59  1  0
 30 60  1  0
 31 61  1  0
M  END
$$$$
ADENYLATE KINASE
     RDKit          3D

 61 63  0  0  0  0  0  0  0  0999 V2000
    0.6378    0.0545    4.5596 P   0  0  0  0  0  0  0  0  0  0  0  0
   -0.6829    1.0289    4.2440 O   0  0  0  0  0  0  0  0  0  0  0  0
    0.4061    0.6303    6.1318 O   0  0  0  0  0  0  0  0  0  0  0  0
   -0.1040   -1.4639    4.5989 O   0  0  0  0  0  0  0  0  0  0  0  0
    2.4101   -1.3908    3.0389 P   0  0  0  0  0  0  0  0  0  0  0  0
    4.0083   -1.1568    2.4891 O   0  0  0  0  0  0  0  0  0  0  0  0
    3.1397   -1.6236    4.5410 O   0  0  0  0  0  0  0  0  0  0  0  0
    1.6982    0.1311    3.2349 O   0  0  0  0  0  0  0  0  0  0  0  0
    1.3737   -3.2280    1.3467 P   0  0  0  0  0  0  0  0  0  0  0  0
    2.2038   -2.8427   -0.0674 O   0  0  0  0  0  0  0  0  0  0  0  0
    0.6418   -4.7145    1.1832 O   0  0  0  0  0  0  0  0  0  0  0  0
    2.2844   -3.0405    2.7740 O   0  0  0  0  0  0  0  0  0  0  0  0
   -0.0953   -3.0655    0.5258 O   0  0  0  0  0  0  0  0  0  0  0  0
   -0.2786   -1.7223    0.1968 C   0  0  0  0  0  0  0  0  0  0  0  0
   -1.5984   -1.6121   -0.5329 C   0  0  1  0  0  0  0  0  0  0  0  0
   -1.9023   -0.3356   -0.9153 O   0  0  0  0  0  0  0  0  0  0  0  0
   -1.5309   -2.5049   -1.7236 C   0  0  1  0  0  0  0  0  0  0  0  0
   -2.3092   -3.6505   -1.5805 O   0  0  0  0  0  0  0  0  0  0  0  0
   -1.9783   -1.6170   -2.8530 C   0  0  1  0  0  0  0  0  0  0  0  0
   -3.3002   -2.0025   -3.1487 O   0  0  0  0  0  0  0  0  0  0  0  0
   -1.9124   -0.2255   -2.2785 C   0  0  2  0  0  0  0  0  0  0  0  0
   -0.6882    0.4628   -2.6856 N   0  0  0  0  0  0  0  0  0  0  0  0
   -0.5999    0.5847   -4.1196 C   0  0  0  0  0  0  0  0  0  0  0  0
   -0.6837    1.9964   -4.4373 N   0  0  0  0  0  0  0  0  0  0  0  0
   -1.4527    2.5195   -3.3068 C   0  0  0  0  0  0  0  0  0  0  0  0
   -1.3462    4.0116   -3.2039 C   0  0  2  0  0  0  0  0  0  0  0  0
   -1.9080    4.6210   -4.3682 N   0  0  0  0  0  0  0  0  0  0  0  0
   -0.0034    4.4849   -2.9984 N   0  0  0  0  0  0  0  0  0  0  0  0
    0.6895    3.7603   -1.9556 C   0  0  0  0  0  0  0  0  0  0  0  0
    0.6117    2.3349   -2.1410 N   0  0  0  0  0  0  0  0  0  0  0  0
   -0.7247    1.8188   -2.1772 C   0  0  0  0  0  0  0  0  0  0  0  0
   -0.5587   -0.1741    5.2757 H   0  0  0  0  0  0  0  0  0  0  0  0
   -0.8551    1.1841    3.2872 H   0  0  0  0  0  0  0  0  0  0  0  0
    0.8780    1.4901    6.3014 H   0  0  0  0  0  0  0  0  0  0  0  0
    0.5669   -2.2127    4.5993 H   0  0  0  0  0  0  0  0  0  0  0  0
    2.3607   -2.6068    3.7085 H   0  0  0  0  0  0  0  0  0  0  0  0
    4.0354   -0.6591    1.6445 H   0  0  0  0  0  0  0  0  0  0  0  0
    3.3947   -0.7796    4.9725 H   0  0  0  0  0  0  0  0  0  0  0  0
    0.3828   -2.9562    2.3023 H   0  0  0  0  0  0  0  0  0  0  0  0
    2.6576   -1.9993    0.0979 H   0  0  0  0  0  0  0  0  0  0  0  0
    1.2604   -5.4802    1.3803 H   0  0  0  0  0  0  0  0  0  0  0  0
   -0.2784   -1.1367    1.1400 H   0  0  0  0  0  0  0  0  0  0  0  0
    0.5577   -1.4074   -0.4551 H   0  0  0  0  0  0  0  0  0  0  0  0
   -2.4013   -2.0013    0.1382 H   0  0  0  0  0  0  0  0  0  0  0  0
   -0.4822   -2.8099   -1.9656 H   0  0  0  0  0  0  0  0  0  0  0  0
   -2.8964   -3.5640   -0.8086 H   0  0  0  0  0  0  0  0  0  0  0  0
   -1.3744   -1.7576   -3.7694 H   0  0  0  0  0  0  0  0  0  0  0  0
   -3.8716   -1.6983   -2.3759 H   0  0  0  0  0  0  0  0  0  0  0  0
   -2.7773    0.3437   -2.6939 H   0  0  0  0  0  0  0  0  0  0  0  0
    0.3567    0.1638   -4.4463 H   0  0  0  0  0  0  0  0  0  0  0  0
   -1.4181    0.0727   -4.6695 H   0  0  0  0  0  0  0  0  0  0  0  0
   -1.1110    2.2134   -5.3464 H   0  0  0  0  0  0  0  0  0  0  0  0
   -2.5073    2.2460   -3.3935 H   0  0  0  0  0  0  0  0  0  0  0  0
   -1.9444    4.3115   -2.3272 H   0  0  0  0  0  0  0  0  0  0  0  0
   -2.5036    4.0072   -4.9440 H   0  0  0  0  0  0  0  0  0  0  0  0
   -2.4533    5.4774   -4.1235 H   0  0  0  0  0  0  0  0  0  0  0  0
   -0.0748    5.4784   -2.6319 H   0  0  0  0  0  0  0  0  0  0  0  0
    0.3376    4.0768   -0.9727 H   0  0  0  0  0  0  0  0  0  0  0  0
    1.7679    4.0362   -2.0639 H   0  0  0  0  0  0  0  0  0  0  0  0
    1.2564    1.8563   -1.5055 H   0  0  0  0  0  0  0  0  0  0  0  0
   -1.2602    1.9015   -1.2159 H   0  0  0  0  0  0  0  0  0  0  0  0
  1  2  1  0
  1  3  1  0
  1  4  1  0
  1  8  1  0
  5  6  1  0
  5  7  1  0
  5  8  1  0
  5 12  1  0
  9 10  1  0
  9 11  1  0
  9 12  1  0
  9 13  1  0
 13 14  1  0
 14 15  1  0
 15 16  1  0
 15 17  1  0
 16 21  1  0
 17 18  1  0
 17 19  1  0
 19 20  1  0
 19 21  1  0
 21 22  1  0
 22 23  1  0
 22 31  1  0
 23 24  1  0
 24 25  1  0
 25 26  1  0
 25 31  1  0
 26 27  1  0
 26 28  1  0
 28 29  1  0
 29 30  1  0
 30 31  1  0
  1 32  1  0
  2 33  1  0
  3 34  1  0
  4 35  1  0
  5 36  1  0
  6 37  1  0
  7 38  1  0
  9 39  1  0
 10 40  1  0
 11 41  1  0
 14 42  1  0
 14 43  1  0
 15 44  1  1
 17 45  1  6
 18 46  1  0
 19 47  1  6
 20 48  1  0
 21 49  1  1
 23 50  1  0
 23 51  1  0
 24 52  1  0
 25 53  1  0
 26 54  1  1
 27 55  1  0
 27 56  1  0
 28 57  1  0
 29 58  1  0
 29 59  1  0
 30 60  1  0
 31 61  1  0
M  END
$$$$
ADENYLATE KINASE
     RDKit          3D

 61 63  0  0  0  0  0  0  0  0999 V2000
    4.2815   -2.6447    3.0596 P   0  0  0  0  0  0  0  0  0  0  0  0
    4.3766   -1.4438    1.8487 O   0  0  0  0  0  0  0  0  0  0  0  0
    4.3830   -1.8221    4.5369 O   0  0  0  0  0  0  0  0  0  0  0  0
    3.7418   -4.2346    2.9783 O   0  0  0  0  0  0  0  0  0  0  0  0
    1.5833   -2.0486    3.4592 P   0  0  0  0  0  0  0  0  0  0  0  0
    0.3010   -2.9891    4.0863 O   0  0  0  0  0  0  0  0  0  0  0  0
    2.1418   -3.0684    4.6817 O   0  0  0  0  0  0  0  0  0  0  0  0
    2.6667   -3.0878    2.7249 O   0  0  0  0  0  0  0  0  0  0  0  0
    0.6425   -2.4065    0.8378 P   0  0  0  0  0  0  0  0  0  0  0  0
    0.3740   -3.8118   -0.0326 O   0  0  0  0  0  0  0  0  0  0  0  0
   -0.2861   -3.2513    1.9423 O   0  0  0  0  0  0  0  0  0  0  0  0
    1.7342   -2.9208    2.0226 O   0  0  0  0  0  0  0  0  0  0  0  0
    0.7978   -1.2856   -0.4205 O   0  0  0  0  0  0  0  0  0  0  0  0
    0.9209    0.0046    0.0957 C   0  0  0  0  0  0  0  0  0  0  0  0
    1.0274    0.9626   -1.0866 C   0  0  1  0  0  0  0  0  0  0  0  0
   -0.1088    0.8847   -1.8958 O   0  0  0  0  0  0  0  0  0  0  0  0
    1.2279    2.3842   -0.6776 C   0  0  1  0  0  0  0  0  0  0  0  0
    2.3438    2.8991   -1.3765 O   0  0  0  0  0  0  0  0  0  0  0  0
    0.0246    3.0569   -1.3583 C   0  0  1  0  0  0  0  0  0  0  0  0
    0.3580    4.3422   -1.7408 O   0  0  0  0  0  0  0  0  0  0  0  0
   -0.1345    2.1052   -2.5127 C   0  0  2  0  0  0  0  0  0  0  0  0
   -1.2174    2.3839   -3.3795 N   0  0  0  0  0  0  0  0  0  0  0  0
   -1.2673    1.4119   -4.4363 C   0  0  0  0  0  0  0  0  0  0  0  0
   -2.5166    0.6860   -4.2947 N   0  0  0  0  0  0  0  0  0  0  0  0
   -2.9834    0.9843   -2.9562 C   0  0  0  0  0  0  0  0  0  0  0  0
   -4.4987    0.9065   -2.9223 C   0  0  2  0  0  0  0  0  0  0  0  0
   -4.9558   -0.4454   -2.9881 N   0  0  0  0  0  0  0  0  0  0  0  0
   -4.9506    1.7195   -4.0480 N   0  0  0  0  0  0  0  0  0  0  0  0
   -4.6671    3.0881   -3.6767 C   0  0  0  0  0  0  0  0  0  0  0  0
   -3.2889    3.3692   -3.4887 N   0  0  0  0  0  0  0  0  0  0  0  0
   -2.5146    2.3913   -2.7793 C   0  0  0  0  0  0  0  0  0  0  0  0
    5.2100   -2.6614    2.0205 H   0  0  0  0  0  0  0  0  0  0  0  0
    3.6495   -0.8022    2.0617 H   0  0  0  0  0  0  0  0  0  0  0  0
    3.8412   -0.9908    4.4337 H   0  0  0  0  0  0  0  0  0  0  0  0
    4.5613   -4.8187    2.9328 H   0  0  0  0  0  0  0  0  0  0  0  0
    1.4042   -3.4271    3.1341 H   0  0  0  0  0  0  0  0  0  0  0  0
   -0.3779   -2.3340    4.3748 H   0  0  0  0  0  0  0  0  0  0  0  0
    2.3886   -2.5740    5.5008 H   0  0  0  0  0  0  0  0  0  0  0  0
    1.8229   -3.1501    0.8659 H   0  0  0  0  0  0  0  0  0  0  0  0
   -0.2522   -3.6812   -0.7865 H   0  0  0  0  0  0  0  0  0  0  0  0
   -1.2442   -2.9793    1.8049 H   0  0  0  0  0  0  0  0  0  0  0  0
    1.8566    0.0910    0.6597 H   0  0  0  0  0  0  0  0  0  0  0  0
    0.0775    0.2840    0.7373 H   0  0  0  0  0  0  0  0  0  0  0  0
    1.8671    0.5945   -1.7448 H   0  0  0  0  0  0  0  0  0  0  0  0
    1.2747    2.5785    0.3957 H   0  0  0  0  0  0  0  0  0  0  0  0
    3.1883    2.6240   -0.9478 H   0  0  0  0  0  0  0  0  0  0  0  0
   -0.7908    3.0141   -0.6156 H   0  0  0  0  0  0  0  0  0  0  0  0
   -0.4518    4.9052   -1.5618 H   0  0  0  0  0  0  0  0  0  0  0  0
    0.7952    2.1857   -3.1176 H   0  0  0  0  0  0  0  0  0  0  0  0
   -0.4188    0.6852   -4.3752 H   0  0  0  0  0  0  0  0  0  0  0  0
   -1.1954    1.9046   -5.4332 H   0  0  0  0  0  0  0  0  0  0  0  0
   -2.4214   -0.3258   -4.4841 H   0  0  0  0  0  0  0  0  0  0  0  0
   -2.5074    0.3695   -2.1801 H   0  0  0  0  0  0  0  0  0  0  0  0
   -4.8894    1.4057   -1.9950 H   0  0  0  0  0  0  0  0  0  0  0  0
   -4.3017   -1.0668   -3.5112 H   0  0  0  0  0  0  0  0  0  0  0  0
   -5.0763   -0.8553   -2.0218 H   0  0  0  0  0  0  0  0  0  0  0  0
   -4.3517    1.4526   -4.8541 H   0  0  0  0  0  0  0  0  0  0  0  0
   -5.0339    3.7285   -4.5071 H   0  0  0  0  0  0  0  0  0  0  0  0
   -5.3237    3.3605   -2.8078 H   0  0  0  0  0  0  0  0  0  0  0  0
   -2.8577    3.7082   -4.3714 H   0  0  0  0  0  0  0  0  0  0  0  0
   -2.4856    2.6550   -1.6895 H   0  0  0  0  0  0  0  0  0  0  0  0
  1  2  1  0
  1  3  1  0
  1  4  1  0
  1  8  1  0
  5  6  1  0
  5  7  1  0
  5  8  1  0
  5 12  1  0
  9 10  1  0
  9 11  1  0
  9 12  1  0
  9 13  1  0
 13 14  1  0
 14 15  1  0
 15 16  1  0
 15 17  1  0
 16 21  1  0
 17 18  1  0
 17 19  1  0
 19 20  1  0
 19 21  1  0
 21 22  1  0
 22 23  1  0
 22 31  1  0
 23 24  1  0
 24 25  1  0
 25 26  1  0
 25 31  1  0
 26 27  1  0
 26 28  1  0
 28 29  1  0
 29 30  1  0
 30 31  1  0
  1 32  1  0
  2 33  1  0
  3 34  1  0
  4 35  1  0
  5 36  1  0
  6 37  1  0
  7 38  1  0
  9 39  1  0
 10 40  1  0
 11 41  1  0
 14 42  1  0
 14 43  1  0
 15 44  1  6
 17 45  1  1
 18 46  1  0
 19 47  1  1
 20 48  1  0
 21 49  1  6
 23 50  1  0
 23 51  1  0
 24 52  1  0
 25 53  1  0
 26 54  1  1
 27 55  1  0
 27 56  1  0
 28 57  1  0
 29 58  1  0
 29 59  1  0
 30 60  1  0
 31 61  1  0
M  END
$$$$
ADENYLATE KINASE
     RDKit          3D

 61 63  0  0  0  0  0  0  0  0999 V2000
    0.4450    4.0583    4.6929 P   0  0  0  0  0  0  0  0  0  0  0  0
    0.1567    4.0036    6.3747 O   0  0  0  0  0  0  0  0  0  0  0  0
   -0.2093    2.6215    4.0881 O   0  0  0  0  0  0  0  0  0  0  0  0
   -0.9834    4.8262    4.1882 O   0  0  0  0  0  0  0  0  0  0  0  0
    3.1178    4.0352    3.8454 P   0  0  0  0  0  0  0  0  0  0  0  0
    4.5490    4.7659    4.3194 O   0  0  0  0  0  0  0  0  0  0  0  0
    2.7956    2.7885    4.9383 O   0  0  0  0  0  0  0  0  0  0  0  0
    1.5624    4.5593    3.5585 O   0  0  0  0  0  0  0  0  0  0  0  0
    3.0755    2.5151    1.5170 P   0  0  0  0  0  0  0  0  0  0  0  0
    4.2473    1.5151    2.2111 O   0  0  0  0  0  0  0  0  0  0  0  0
    4.0306    3.2675    0.3433 O   0  0  0  0  0  0  0  0  0  0  0  0
    3.0320    4.0773    2.1547 O   0  0  0  0  0  0  0  0  0  0  0  0
    2.3542    1.0060    1.3089 O   0  0  0  0  0  0  0  0  0  0  0  0
    1.5409    1.0651    0.1942 C   0  0  0  0  0  0  0  0  0  0  0  0
    0.8371   -0.2556   -0.0003 C   0  0  1  0  0  0  0  0  0  0  0  0
   -0.0075   -0.2346   -1.1362 O   0  0  0  0  0  0  0  0  0  0  0  0
    1.7972   -1.3498   -0.4152 C   0  0  1  0  0  0  0  0  0  0  0  0
    2.5756   -1.8191    0.6262 O   0  0  0  0  0  0  0  0  0  0  0  0
    0.7921   -2.4063   -0.8906 C   0  0  1  0  0  0  0  0  0  0  0  0
    0.4712   -3.2910    0.1088 O   0  0  0  0  0  0  0  0  0  0  0  0
   -0.4072   -1.5523   -1.2392 C   0  0  2  0  0  0  0  0  0  0  0  0
   -0.8973   -1.9691   -2.5014 N   0  0  0  0  0  0  0  0  0  0  0  0
   -2.0486   -1.2219   -2.9739 C   0  0  0  0  0  0  0  0  0  0  0  0
   -2.7900   -2.1301   -3.8351 N   0  0  0  0  0  0  0  0  0  0  0  0
   -2.1042   -3.3833   -3.7657 C   0  0  0  0  0  0  0  0  0  0  0  0
   -2.9785   -4.5990   -3.7652 C   0  0  2  0  0  0  0  0  0  0  0  0
   -4.2793   -4.3195   -3.1604 N   0  0  0  0  0  0  0  0  0  0  0  0
   -2.3228   -5.7426   -3.2236 N   0  0  0  0  0  0  0  0  0  0  0  0
   -1.5018   -5.5416   -2.0824 C   0  0  0  0  0  0  0  0  0  0  0  0
   -0.6283   -4.3710   -2.2104 N   0  0  0  0  0  0  0  0  0  0  0  0
   -1.5143   -3.2722   -2.3515 C   0  0  0  0  0  0  0  0  0  0  0  0
    0.4166    5.1278    3.7685 H   0  0  0  0  0  0  0  0  0  0  0  0
    0.9692    4.3144    6.8389 H   0  0  0  0  0  0  0  0  0  0  0  0
   -0.8650    2.2738    4.7389 H   0  0  0  0  0  0  0  0  0  0  0  0
   -1.7545    4.5515    4.7622 H   0  0  0  0  0  0  0  0  0  0  0  0
    3.5323    3.9860    5.1867 H   0  0  0  0  0  0  0  0  0  0  0  0
    5.0137    5.1708    3.5218 H   0  0  0  0  0  0  0  0  0  0  0  0
    2.3550    2.0033    4.4781 H   0  0  0  0  0  0  0  0  0  0  0  0
    3.0328    3.8988    1.1699 H   0  0  0  0  0  0  0  0  0  0  0  0
    5.0973    1.9830    2.2885 H   0  0  0  0  0  0  0  0  0  0  0  0
    4.5784    2.5933   -0.1696 H   0  0  0  0  0  0  0  0  0  0  0  0
    0.8329    1.8992    0.2299 H   0  0  0  0  0  0  0  0  0  0  0  0
    2.2185    1.2363   -0.6731 H   0  0  0  0  0  0  0  0  0  0  0  0
    0.2516   -0.5528    0.8902 H   0  0  0  0  0  0  0  0  0  0  0  0
    2.3841   -0.9750   -1.2688 H   0  0  0  0  0  0  0  0  0  0  0  0
    3.5223   -1.5531    0.4059 H   0  0  0  0  0  0  0  0  0  0  0  0
    1.2079   -2.9261   -1.7767 H   0  0  0  0  0  0  0  0  0  0  0  0
    1.1552   -3.2896    0.8247 H   0  0  0  0  0  0  0  0  0  0  0  0
   -1.2263   -1.6762   -0.4782 H   0  0  0  0  0  0  0  0  0  0  0  0
   -1.6321   -0.4201   -3.6418 H   0  0  0  0  0  0  0  0  0  0  0  0
   -2.6589   -0.7770   -2.1903 H   0  0  0  0  0  0  0  0  0  0  0  0
   -2.9235   -1.7416   -4.7845 H   0  0  0  0  0  0  0  0  0  0  0  0
   -1.3206   -3.4384   -4.5216 H   0  0  0  0  0  0  0  0  0  0  0  0
   -3.2093   -4.8297   -4.8434 H   0  0  0  0  0  0  0  0  0  0  0  0
   -4.2420   -3.5560   -2.4749 H   0  0  0  0  0  0  0  0  0  0  0  0
   -4.5808   -5.2240   -2.7105 H   0  0  0  0  0  0  0  0  0  0  0  0
   -1.9309   -6.4129   -3.9087 H   0  0  0  0  0  0  0  0  0  0  0  0
   -2.0659   -5.3974   -1.1354 H   0  0  0  0  0  0  0  0  0  0  0  0
   -0.8494   -6.4082   -1.9586 H   0  0  0  0  0  0  0  0  0  0  0  0
   -0.0815   -4.4694   -3.0998 H   0  0  0  0  0  0  0  0  0  0  0  0
   -2.3544   -3.2644   -1.6364 H   0  0  0  0  0  0  0  0  0  0  0  0
  1  2  1  0
  1  3  1  0
  1  4  1  0
  1  8  1  0
  5  6  1  0
  5  7  1  0
  5  8  1  0
  5 12  1  0
  9 10  1  0
  9 11  1  0
  9 12  1  0
  9 13  1  0
 13 14  1  0
 14 15  1  0
 15 16  1  0
 15 17  1  0
 16 21  1  0
 17 18  1  0
 17 19  1  0
 19 20  1  0
 19 21  1  0
 21 22  1  0
 22 23  1  0
 22 31  1  0
 23 24  1  0
 24 25  1  0
 25 26  1  0
 25 31  1  0
 26 27  1  0
 26 28  1  0
 28 29  1  0
 29 30  1  0
 30 31  1  0
  1 32  1  0
  2 33  1  0
  3 34  1  0
  4 35  1  0
  5 36  1  0
  6 37  1  0
  7 38  1  0
  9 39  1  0
 10 40  1  0
 11 41  1  0
 14 42  1  0
 14 43  1  0
 15 44  1  1
 17 45  1  6
 18 46  1  0
 19 47  1  6
 20 48  1  0
 21 49  1  1
 23 50  1  0
 23 51  1  0
 24 52  1  0
 25 53  1  0
 26 54  1  6
 27 55  1  0
 27 56  1  0
 28 57  1  0
 29 58  1  0
 29 59  1  0
 30 60  1  0
 31 61  1  0
M  END
$$$$
ADENYLATE KINASE
     RDKit          3D

 61 63  0  0  0  0  0  0  0  0999 V2000
   -1.0314    5.4360    1.7181 P   0  0  0  0  0  0  0  0  0  0  0  0
    0.1808    4.6119    0.8447 O   0  0  0  0  0  0  0  0  0  0  0  0
   -0.7107    7.1024    1.5551 O   0  0  0  0  0  0  0  0  0  0  0  0
   -2.1057    5.4975    0.3921 O   0  0  0  0  0  0  0  0  0  0  0  0
   -1.5880    3.6072    3.6857 P   0  0  0  0  0  0  0  0  0  0  0  0
   -3.1286    4.0849    3.1693 O   0  0  0  0  0  0  0  0  0  0  0  0
   -0.9595    4.7532    4.7466 O   0  0  0  0  0  0  0  0  0  0  0  0
   -0.4063    4.1336    2.6022 O   0  0  0  0  0  0  0  0  0  0  0  0
   -2.0554    0.8727    3.8234 P   0  0  0  0  0  0  0  0  0  0  0  0
   -0.8248    0.6760    4.9580 O   0  0  0  0  0  0  0  0  0  0  0  0
   -3.4719    1.2853    4.6649 O   0  0  0  0  0  0  0  0  0  0  0  0
   -0.9760    2.1228    4.2219 O   0  0  0  0  0  0  0  0  0  0  0  0
   -1.5389    0.0877    2.4538 O   0  0  0  0  0  0  0  0  0  0  0  0
   -2.5396   -0.5436    1.7512 C   0  0  0  0  0  0  0  0  0  0  0  0
   -1.9557   -1.0820    0.4929 C   0  0  1  0  0  0  0  0  0  0  0  0
   -0.9242   -2.0027    0.6776 O   0  0  0  0  0  0  0  0  0  0  0  0
   -2.9258   -1.9760   -0.2855 C   0  0  1  0  0  0  0  0  0  0  0  0
   -3.9790   -1.2732   -0.8053 O   0  0  0  0  0  0  0  0  0  0  0  0
   -1.9491   -2.4822   -1.3576 C   0  0  1  0  0  0  0  0  0  0  0  0
   -2.0852   -1.5510   -2.4132 O   0  0  0  0  0  0  0  0  0  0  0  0
   -0.6556   -2.3821   -0.6606 C   0  0  2  0  0  0  0  0  0  0  0  0
    0.2554   -3.4054   -0.6621 N   0  0  0  0  0  0  0  0  0  0  0  0
    0.0897   -4.6770   -0.1932 C   0  0  0  0  0  0  0  0  0  0  0  0
    1.2159   -5.4107   -0.7594 N   0  0  0  0  0  0  0  0  0  0  0  0
    2.2629   -4.4543   -0.9623 C   0  0  0  0  0  0  0  0  0  0  0  0
    3.0349   -4.6178   -2.2342 C   0  0  2  0  0  0  0  0  0  0  0  0
    4.1613   -3.6790   -2.1639 N   0  0  0  0  0  0  0  0  0  0  0  0
    2.2509   -4.3536   -3.4205 N   0  0  0  0  0  0  0  0  0  0  0  0
    1.4986   -3.1316   -3.3554 C   0  0  0  0  0  0  0  0  0  0  0  0
    1.6890   -2.3676   -2.1681 N   0  0  0  0  0  0  0  0  0  0  0  0
    1.6221   -3.1034   -0.9498 C   0  0  0  0  0  0  0  0  0  0  0  0
   -2.1082    6.3267    1.8496 H   0  0  0  0  0  0  0  0  0  0  0  0
    0.4132    5.1826    0.0542 H   0  0  0  0  0  0  0  0  0  0  0  0
    0.1637    7.1749    1.0798 H   0  0  0  0  0  0  0  0  0  0  0  0
   -2.2399    4.6127    0.0086 H   0  0  0  0  0  0  0  0  0  0  0  0
   -2.1773    3.1973    2.4747 H   0  0  0  0  0  0  0  0  0  0  0  0
   -3.5036    4.6302    3.9137 H   0  0  0  0  0  0  0  0  0  0  0  0
   -1.3682    5.6279    4.4526 H   0  0  0  0  0  0  0  0  0  0  0  0
   -2.8716   -0.1917    4.2134 H   0  0  0  0  0  0  0  0  0  0  0  0
   -0.6946   -0.2643    5.2572 H   0  0  0  0  0  0  0  0  0  0  0  0
   -3.9091    2.0731    4.2259 H   0  0  0  0  0  0  0  0  0  0  0  0
   -3.3844    0.1063    1.4797 H   0  0  0  0  0  0  0  0  0  0  0  0
   -2.8851   -1.3997    2.3856 H   0  0  0  0  0  0  0  0  0  0  0  0
   -1.6919   -0.2721   -0.2118 H   0  0  0  0  0  0  0  0  0  0  0  0
   -3.1837   -2.8364    0.3381 H   0  0  0  0  0  0  0  0  0  0  0  0
   -4.8259   -1.6770   -0.4350 H   0  0  0  0  0  0  0  0  0  0  0  0
   -2.2307   -3.4523   -1.7705 H   0  0  0  0  0  0  0  0  0  0  0  0
   -2.4438   -0.6855   -2.1031 H   0  0  0  0  0  0  0  0  0  0  0  0
   -0.1432   -1.4612   -1.0730 H   0  0  0  0  0  0  0  0  0  0  0  0
    0.2229   -4.7550    0.9132 H   0  0  0  0  0  0  0  0  0  0  0  0
   -0.8095   -5.2490   -0.4547 H   0  0  0  0  0  0  0  0  0  0  0  0
    0.9627   -5.9779   -1.5866 H   0  0  0  0  0  0  0  0  0  0  0  0
    2.9813   -4.5543   -0.1232 H   0  0  0  0  0  0  0  0  0  0  0  0
    3.4802   -5.6244   -2.3332 H   0  0  0  0  0  0  0  0  0  0  0  0
    5.0751   -4.1615   -2.0815 H   0  0  0  0  0  0  0  0  0  0  0  0
    4.1863   -3.0651   -3.0194 H   0  0  0  0  0  0  0  0  0  0  0  0
    2.8934   -4.3682   -4.2432 H   0  0  0  0  0  0  0  0  0  0  0  0
    1.7435   -2.4628   -4.2177 H   0  0  0  0  0  0  0  0  0  0  0  0
    0.4139   -3.4030   -3.4623 H   0  0  0  0  0  0  0  0  0  0  0  0
    2.3704   -1.5974   -2.2103 H   0  0  0  0  0  0  0  0  0  0  0  0
    2.0388   -2.5044   -0.1137 H   0  0  0  0  0  0  0  0  0  0  0  0
  1  2  1  0
  1  3  1  0
  1  4  1  0
  1  8  1  0
  5  6  1  0
  5  7  1  0
  5  8  1  0
  5 12  1  0
  9 10  1  0
  9 11  1  0
  9 12  1  0
  9 13  1  0
 13 14  1  0
 14 15  1  0
 15 16  1  0
 15 17  1  0
 16 21  1  0
 17 18  1  0
 17 19  1  0
 19 20  1  0
 19 21  1  0
 21 22  1  0
 22 23  1  0
 22 31  1  0
 23 24  1  0
 24 25  1  0
 25 26  1  0
 25 31  1  0
 26 27  1  0
 26 28  1  0
 28 29  1  0
 29 30  1  0
 30 31  1  0
  1 32  1  0
  2 33  1  0
  3 34  1  0
  4 35  1  0
  5 36  1  0
  6 37  1  0
  7 38  1  0
  9 39  1  0
 10 40  1  0
 11 41  1  0
 14 42  1  0
 14 43  1  0
 15 44  1  6
 17 45  1  1
 18 46  1  0
 19 47  1  6
 20 48  1  0
 21 49  1  6
 23 50  1  0
 23 51  1  0
 24 52  1  0
 25 53  1  0
 26 54  1  6
 27 55  1  0
 27 56  1  0
 28 57  1  0
 29 58  1  0
 29 59  1  0
 30 60  1  0
 31 61  1  0
M  END
$$$$
ADENYLATE KINASE
     RDKit          3D

 61 63  0  0  0  0  0  0  0  0999 V2000
    3.9422    2.6954    0.4183 P   0  0  0  0  0  0  0  0  0  0  0  0
    3.4455    1.1054    0.1465 O   0  0  0  0  0  0  0  0  0  0  0  0
    4.0437    4.2614   -0.1832 O   0  0  0  0  0  0  0  0  0  0  0  0
    2.7831    2.8550    1.6561 O   0  0  0  0  0  0  0  0  0  0  0  0
    3.1414    2.5311   -2.2041 P   0  0  0  0  0  0  0  0  0  0  0  0
    3.3860    3.3205   -3.7007 O   0  0  0  0  0  0  0  0  0  0  0  0
    3.5370    0.9206   -2.5290 O   0  0  0  0  0  0  0  0  0  0  0  0
    4.4845    2.7083   -1.1811 O   0  0  0  0  0  0  0  0  0  0  0  0
    0.5470    3.5045   -1.7668 P   0  0  0  0  0  0  0  0  0  0  0  0
    0.5452    2.6668   -3.2604 O   0  0  0  0  0  0  0  0  0  0  0  0
   -0.3234    4.9026   -2.1377 O   0  0  0  0  0  0  0  0  0  0  0  0
    1.4979    2.1889   -2.1272 O   0  0  0  0  0  0  0  0  0  0  0  0
   -0.3232    2.6098   -0.6487 O   0  0  0  0  0  0  0  0  0  0  0  0
   -1.6331    3.0933   -0.4568 C   0  0  0  0  0  0  0  0  0  0  0  0
   -2.3401    2.2115    0.5771 C   0  0  1  0  0  0  0  0  0  0  0  0
   -2.3892    0.9017    0.1226 O   0  0  0  0  0  0  0  0  0  0  0  0
   -1.5109    2.2467    1.8381 C   0  0  1  0  0  0  0  0  0  0  0  0
   -2.3184    2.1446    2.9671 O   0  0  0  0  0  0  0  0  0  0  0  0
   -0.7812    0.9128    1.7096 C   0  0  1  0  0  0  0  0  0  0  0  0
   -0.4219    0.4990    2.9832 O   0  0  0  0  0  0  0  0  0  0  0  0
   -1.8976    0.0766    1.1283 C   0  0  2  0  0  0  0  0  0  0  0  0
   -1.3604   -1.1165    0.6103 N   0  0  0  0  0  0  0  0  0  0  0  0
   -0.4171   -1.0421   -0.4454 C   0  0  0  0  0  0  0  0  0  0  0  0
   -0.2305   -2.4608   -0.8008 N   0  0  0  0  0  0  0  0  0  0  0  0
   -1.4044   -3.1613   -0.3138 C   0  0  0  0  0  0  0  0  0  0  0  0
   -1.1067   -3.8675    1.0101 C   0  0  2  0  0  0  0  0  0  0  0  0
   -0.0362   -4.8204    0.8779 N   0  0  0  0  0  0  0  0  0  0  0  0
   -2.3076   -4.6004    1.3557 N   0  0  0  0  0  0  0  0  0  0  0  0
   -3.4981   -3.9490    0.8327 C   0  0  0  0  0  0  0  0  0  0  0  0
   -3.3036   -2.5017    1.0099 N   0  0  0  0  0  0  0  0  0  0  0  0
   -2.3493   -2.0295    0.0559 C   0  0  0  0  0  0  0  0  0  0  0  0
    3.9587    1.9679    1.6158 H   0  0  0  0  0  0  0  0  0  0  0  0
    2.5334    1.0636   -0.1973 H   0  0  0  0  0  0  0  0  0  0  0  0
    3.1321    4.6270   -0.1601 H   0  0  0  0  0  0  0  0  0  0  0  0
    2.1076    3.5310    1.3284 H   0  0  0  0  0  0  0  0  0  0  0  0
    2.1947    1.4856   -2.2765 H   0  0  0  0  0  0  0  0  0  0  0  0
    3.0893    2.6863   -4.4173 H   0  0  0  0  0  0  0  0  0  0  0  0
    4.4362    0.8053   -2.9245 H   0  0  0  0  0  0  0  0  0  0  0  0
    0.6556    2.2735   -1.1307 H   0  0  0  0  0  0  0  0  0  0  0  0
   -0.1935    3.0082   -3.8600 H   0  0  0  0  0  0  0  0  0  0  0  0
   -1.0742    4.5703   -2.7226 H   0  0  0  0  0  0  0  0  0  0  0  0
   -1.5077    4.0933    0.0354 H   0  0  0  0  0  0  0  0  0  0  0  0
   -2.2058    3.1654   -1.3853 H   0  0  0  0  0  0  0  0  0  0  0  0
   -3.3221    2.6616    0.7901 H   0  0  0  0  0  0  0  0  0  0  0  0
   -0.7808    3.0529    1.8809 H   0  0  0  0  0  0  0  0  0  0  0  0
   -3.2787    2.1736    2.7626 H   0  0  0  0  0  0  0  0  0  0  0  0
    0.0350    0.9617    0.9904 H   0  0  0  0  0  0  0  0  0  0  0  0
    0.3605   -0.1082    2.9018 H   0  0  0  0  0  0  0  0  0  0  0  0
   -2.6910   -0.1251    1.8802 H   0  0  0  0  0  0  0  0  0  0  0  0
   -0.8739   -0.5821   -1.3699 H   0  0  0  0  0  0  0  0  0  0  0  0
    0.5306   -0.5713   -0.1900 H   0  0  0  0  0  0  0  0  0  0  0  0
    0.6298   -2.7608   -0.2836 H   0  0  0  0  0  0  0  0  0  0  0  0
   -1.8227   -3.8552   -1.0609 H   0  0  0  0  0  0  0  0  0  0  0  0
   -0.8394   -3.0791    1.7465 H   0  0  0  0  0  0  0  0  0  0  0  0
   -0.0981   -5.4533    1.7145 H   0  0  0  0  0  0  0  0  0  0  0  0
    0.9123   -4.3503    0.9892 H   0  0  0  0  0  0  0  0  0  0  0  0
   -2.4101   -4.5567    2.3996 H   0  0  0  0  0  0  0  0  0  0  0  0
   -3.6660   -4.1926   -0.2489 H   0  0  0  0  0  0  0  0  0  0  0  0
   -4.3792   -4.2467    1.4510 H   0  0  0  0  0  0  0  0  0  0  0  0
   -3.0287   -2.3628    1.9938 H   0  0  0  0  0  0  0  0  0  0  0  0
   -2.8283   -1.6180   -0.8509 H   0  0  0  0  0  0  0  0  0  0  0  0
  1  2  1  0
  1  3  1  0
  1  4  1  0
  1  8  1  0
  5  6  1  0
  5  7  1  0
  5  8  1  0
  5 12  1  0
  9 10  1  0
  9 11  1  0
  9 12  1  0
  9 13  1  0
 13 14  1  0
 14 15  1  0
 15 16  1  0
 15 17  1  0
 16 21  1  0
 17 18  1  0
 17 19  1  0
 19 20  1  0
 19 21  1  0
 21 22  1  0
 22 23  1  0
 22 31  1  0
 23 24  1  0
 24 25  1  0
 25 26  1  0
 25 31  1  0
 26 27  1  0
 26 28  1  0
 28 29  1  0
 29 30  1  0
 30 31  1  0
  1 32  1  0
  2 33  1  0
  3 34  1  0
  4 35  1  0
  5 36  1  0
  6 37  1  0
  7 38  1  0
  9 39  1  0
 10 40  1  0
 11 41  1  0
 14 42  1  0
 14 43  1  0
 15 44  1  1
 17 45  1  1
 18 46  1  0
 19 47  1  6
 20 48  1  0
 21 49  1  1
 23 50  1  0
 23 51  1  0
 24 52  1  0
 25 53  1  0
 26 54  1  1
 27 55  1  0
 27 56  1  0
 28 57  1  0
 29 58  1  0
 29 59  1  0
 30 60  1  0
 31 61  1  0
M  END
$$$$
ADENYLATE KINASE
     RDKit          3D

 61 63  0  0  0  0  0  0  0  0999 V2000
    0.9339    4.0477   -6.7138 P   0  0  0  0  0  0  0  0  0  0  0  0
   -0.5751    4.6966   -6.2822 O   0  0  0  0  0  0  0  0  0  0  0  0
    1.7381    5.3246   -7.4777 O   0  0  0  0  0  0  0  0  0  0  0  0
    2.5667    4.2560   -6.3343 O   0  0  0  0  0  0  0  0  0  0  0  0
    1.0660    2.6647   -4.2926 P   0  0  0  0  0  0  0  0  0  0  0  0
   -0.4843    2.1814   -4.7824 O   0  0  0  0  0  0  0  0  0  0  0  0
    2.0155    1.7166   -5.3209 O   0  0  0  0  0  0  0  0  0  0  0  0
    0.1674    3.7268   -5.2177 O   0  0  0  0  0  0  0  0  0  0  0  0
    1.9060    2.1704   -1.7113 P   0  0  0  0  0  0  0  0  0  0  0  0
    3.4168    2.1606   -0.9595 O   0  0  0  0  0  0  0  0  0  0  0  0
    3.2174    1.5597   -2.5773 O   0  0  0  0  0  0  0  0  0  0  0  0
    1.7632    3.3062   -2.9207 O   0  0  0  0  0  0  0  0  0  0  0  0
    1.2988    1.8922   -0.1647 O   0  0  0  0  0  0  0  0  0  0  0  0
    0.1196    1.1585   -0.1858 C   0  0  0  0  0  0  0  0  0  0  0  0
   -0.3986    0.8688    1.2067 C   0  0  1  0  0  0  0  0  0  0  0  0
   -1.5573    0.1495    1.2162 O   0  0  0  0  0  0  0  0  0  0  0  0
    0.6622    0.0800    1.9187 C   0  0  1  0  0  0  0  0  0  0  0  0
    0.6741    0.5291    3.2460 O   0  0  0  0  0  0  0  0  0  0  0  0
   -0.0160   -1.3074    1.9317 C   0  0  1  0  0  0  0  0  0  0  0  0
    0.5710   -2.1263    2.8515 O   0  0  0  0  0  0  0  0  0  0  0  0
   -1.4014   -0.8261    2.2376 C   0  0  2  0  0  0  0  0  0  0  0  0
   -2.4525   -1.7683    2.2218 N   0  0  0  0  0  0  0  0  0  0  0  0
   -3.6913   -0.9506    2.4114 C   0  0  0  0  0  0  0  0  0  0  0  0
   -3.3262   -0.3909    3.7293 N   0  0  0  0  0  0  0  0  0  0  0  0
   -3.0613   -1.6071    4.4786 C   0  0  0  0  0  0  0  0  0  0  0  0
   -2.2049   -1.4032    5.6552 C   0  0  2  0  0  0  0  0  0  0  0  0
   -1.8543   -0.0157    5.8916 N   0  0  0  0  0  0  0  0  0  0  0  0
   -0.9744   -2.1653    5.6550 N   0  0  0  0  0  0  0  0  0  0  0  0
   -1.2137   -3.5105    5.1691 C   0  0  0  0  0  0  0  0  0  0  0  0
   -1.4869   -3.3894    3.7542 N   0  0  0  0  0  0  0  0  0  0  0  0
   -2.5703   -2.5493    3.4336 C   0  0  0  0  0  0  0  0  0  0  0  0
    1.8937    3.8361   -7.7092 H   0  0  0  0  0  0  0  0  0  0  0  0
   -0.7048    5.5754   -6.7624 H   0  0  0  0  0  0  0  0  0  0  0  0
    1.1852    6.1652   -7.4820 H   0  0  0  0  0  0  0  0  0  0  0  0
    2.6651    4.2412   -5.3517 H   0  0  0  0  0  0  0  0  0  0  0  0
   -0.0291    3.4006   -3.8417 H   0  0  0  0  0  0  0  0  0  0  0  0
   -0.4506    1.1934   -4.7358 H   0  0  0  0  0  0  0  0  0  0  0  0
    1.8157    2.0457   -6.2299 H   0  0  0  0  0  0  0  0  0  0  0  0
    1.6927    3.5455   -1.8934 H   0  0  0  0  0  0  0  0  0  0  0  0
    3.6073    2.9814   -0.4414 H   0  0  0  0  0  0  0  0  0  0  0  0
    2.9036    0.7018   -2.9957 H   0  0  0  0  0  0  0  0  0  0  0  0
    0.3492    0.1971   -0.7309 H   0  0  0  0  0  0  0  0  0  0  0  0
   -0.6161    1.7073   -0.7742 H   0  0  0  0  0  0  0  0  0  0  0  0
   -0.6070    1.8571    1.6597 H   0  0  0  0  0  0  0  0  0  0  0  0
    1.6410    0.0672    1.4533 H   0  0  0  0  0  0  0  0  0  0  0  0
    1.5664    0.4285    3.6579 H   0  0  0  0  0  0  0  0  0  0  0  0
    0.0890   -1.6663    0.8807 H   0  0  0  0  0  0  0  0  0  0  0  0
    1.1654   -2.7544    2.3428 H   0  0  0  0  0  0  0  0  0  0  0  0
   -1.3328   -0.2209    3.1655 H   0  0  0  0  0  0  0  0  0  0  0  0
   -3.7915   -0.1925    1.6385 H   0  0  0  0  0  0  0  0  0  0  0  0
   -4.5405   -1.6281    2.5579 H   0  0  0  0  0  0  0  0  0  0  0  0
   -4.1228    0.1597    4.1234 H   0  0  0  0  0  0  0  0  0  0  0  0
   -4.0801   -1.9251    4.8411 H   0  0  0  0  0  0  0  0  0  0  0  0
   -2.7196   -1.7158    6.6146 H   0  0  0  0  0  0  0  0  0  0  0  0
   -2.5043    0.6453    5.4166 H   0  0  0  0  0  0  0  0  0  0  0  0
   -0.8756    0.2138    5.6244 H   0  0  0  0  0  0  0  0  0  0  0  0
   -0.5910   -2.1637    6.6156 H   0  0  0  0  0  0  0  0  0  0  0  0
   -0.2557   -4.0588    5.2637 H   0  0  0  0  0  0  0  0  0  0  0  0
   -2.0325   -3.9473    5.7576 H   0  0  0  0  0  0  0  0  0  0  0  0
   -1.5395   -4.3520    3.3543 H   0  0  0  0  0  0  0  0  0  0  0  0
   -3.4376   -3.2579    3.1982 H   0  0  0  0  0  0  0  0  0  0  0  0
  1  2  1  0
  1  3  1  0
  1  4  1  0
  1  8  1  0
  5  6  1  0
  5  7  1  0
  5  8  1  0
  5 12  1  0
  9 10  1  0
  9 11  1  0
  9 12  1  0
  9 13  1  0
 13 14  1  0
 14 15  1  0
 15 16  1  0
 15 17  1  0
 16 21  1  0
 17 18  1  0
 17 19  1  0
 19 20  1  0
 19 21  1  0
 21 22  1  0
 22 23  1  0
 22 31  1  0
 23 24  1  0
 24 25  1  0
 25 26  1  0
 25 31  1  0
 26 27  1  0
 26 28  1  0
 28 29  1  0
 29 30  1  0
 30 31  1  0
  1 32  1  0
  2 33  1  0
  3 34  1  0
  4 35  1  0
  5 36  1  0
  6 37  1  0
  7 38  1  0
  9 39  1  0
 10 40  1  0
 11 41  1  0
 14 42  1  0
 14 43  1  0
 15 44  1  1
 17 45  1  6
 18 46  1  0
 19 47  1  6
 20 48  1  0
 21 49  1  1
 23 50  1  0
 23 51  1  0
 24 52  1  0
 25 53  1  0
 26 54  1  1
 27 55  1  0
 27 56  1  0
 28 57  1  0
 29 58  1  0
 29 59  1  0
 30 60  1  0
 31 61  1  0
M  END
$$$$
ADENYLATE KINASE
     RDKit          3D

 61 63  0  0  0  0  0  0  0  0999 V2000
   -1.9743    0.4715   -4.3480 P   0  0  0  0  0  0  0  0  0  0  0  0
   -1.2796    1.9789   -3.9786 O   0  0  0  0  0  0  0  0  0  0  0  0
   -1.2790   -0.2450   -5.7279 O   0  0  0  0  0  0  0  0  0  0  0  0
   -3.3078    0.7813   -5.3383 O   0  0  0  0  0  0  0  0  0  0  0  0
   -1.2823   -1.7126   -2.8649 P   0  0  0  0  0  0  0  0  0  0  0  0
   -2.0434   -3.1908   -3.2583 O   0  0  0  0  0  0  0  0  0  0  0  0
   -2.4674   -1.0386   -1.8441 O   0  0  0  0  0  0  0  0  0  0  0  0
   -1.6647   -0.0807   -2.7942 O   0  0  0  0  0  0  0  0  0  0  0  0
    1.1434   -2.0449   -1.4827 P   0  0  0  0  0  0  0  0  0  0  0  0
    2.6003   -2.1838   -2.3304 O   0  0  0  0  0  0  0  0  0  0  0  0
    0.9063   -3.4807   -0.6606 O   0  0  0  0  0  0  0  0  0  0  0  0
    0.2970   -2.2713   -2.9178 O   0  0  0  0  0  0  0  0  0  0  0  0
    1.7307   -1.0911   -0.2210 O   0  0  0  0  0  0  0  0  0  0  0  0
    2.4243    0.0187   -0.6227 C   0  0  0  0  0  0  0  0  0  0  0  0
    2.9401    0.8571    0.5173 C   0  0  1  0  0  0  0  0  0  0  0  0
    1.9688    1.3492    1.3555 O   0  0  0  0  0  0  0  0  0  0  0  0
    3.9163    0.0761    1.3873 C   0  0  1  0  0  0  0  0  0  0  0  0
    5.1644   -0.0549    0.8465 O   0  0  0  0  0  0  0  0  0  0  0  0
    3.8811    1.0198    2.5986 C   0  0  1  0  0  0  0  0  0  0  0  0
    4.4890    2.1987    2.1748 O   0  0  0  0  0  0  0  0  0  0  0  0
    2.3775    1.1939    2.6709 C   0  0  2  0  0  0  0  0  0  0  0  0
    1.8001   -0.0469    3.1515 N   0  0  0  0  0  0  0  0  0  0  0  0
    2.2725   -0.4193    4.4484 C   0  0  0  0  0  0  0  0  0  0  0  0
    1.3252   -1.4337    4.8731 N   0  0  0  0  0  0  0  0  0  0  0  0
    0.0463   -0.9423    4.4222 C   0  0  0  0  0  0  0  0  0  0  0  0
   -0.7008   -2.1405    3.8591 C   0  0  2  0  0  0  0  0  0  0  0  0
    0.1396   -2.7627    2.8548 N   0  0  0  0  0  0  0  0  0  0  0  0
   -1.9463   -1.7158    3.2942 N   0  0  0  0  0  0  0  0  0  0  0  0
   -1.7518   -0.5251    2.4995 C   0  0  0  0  0  0  0  0  0  0  0  0
   -0.3763   -0.2992    2.1654 N   0  0  0  0  0  0  0  0  0  0  0  0
    0.3703    0.0819    3.3455 C   0  0  0  0  0  0  0  0  0  0  0  0
   -0.6202    0.6779   -4.0303 H   0  0  0  0  0  0  0  0  0  0  0  0
   -1.9916    2.6825   -3.9056 H   0  0  0  0  0  0  0  0  0  0  0  0
   -1.2267   -1.2085   -5.5338 H   0  0  0  0  0  0  0  0  0  0  0  0
   -3.5077    1.7424   -5.2223 H   0  0  0  0  0  0  0  0  0  0  0  0
   -0.9194   -0.5654   -2.1707 H   0  0  0  0  0  0  0  0  0  0  0  0
   -2.3585   -3.5385   -2.3707 H   0  0  0  0  0  0  0  0  0  0  0  0
   -2.8045   -1.7880   -1.2582 H   0  0  0  0  0  0  0  0  0  0  0  0
    1.3840   -2.2180   -0.1078 H   0  0  0  0  0  0  0  0  0  0  0  0
    2.6846   -3.1336   -2.5971 H   0  0  0  0  0  0  0  0  0  0  0  0
    0.7682   -4.2541   -1.2687 H   0  0  0  0  0  0  0  0  0  0  0  0
    3.3043   -0.2239   -1.2580 H   0  0  0  0  0  0  0  0  0  0  0  0
    1.7665    0.6537   -1.2367 H   0  0  0  0  0  0  0  0  0  0  0  0
    3.5150    1.7133    0.1083 H   0  0  0  0  0  0  0  0  0  0  0  0
    3.4267   -0.8962    1.6404 H   0  0  0  0  0  0  0  0  0  0  0  0
    5.7231    0.7220    1.0056 H   0  0  0  0  0  0  0  0  0  0  0  0
    4.3078    0.5805    3.5007 H   0  0  0  0  0  0  0  0  0  0  0  0
    4.1734    3.0088    2.6139 H   0  0  0  0  0  0  0  0  0  0  0  0
    2.0931    2.0477    3.3145 H   0  0  0  0  0  0  0  0  0  0  0  0
    3.2589   -0.9319    4.4302 H   0  0  0  0  0  0  0  0  0  0  0  0
    2.2122    0.3942    5.1894 H   0  0  0  0  0  0  0  0  0  0  0  0
    1.3605   -1.6262    5.8906 H   0  0  0  0  0  0  0  0  0  0  0  0
   -0.4729   -0.4862    5.2770 H   0  0  0  0  0  0  0  0  0  0  0  0
   -0.8132   -2.8521    4.6855 H   0  0  0  0  0  0  0  0  0  0  0  0
   -0.4185   -3.3861    2.2102 H   0  0  0  0  0  0  0  0  0  0  0  0
    0.9105   -3.3241    3.2748 H   0  0  0  0  0  0  0  0  0  0  0  0
   -2.4141   -2.4945    2.7958 H   0  0  0  0  0  0  0  0  0  0  0  0
   -2.2890   -0.7021    1.5232 H   0  0  0  0  0  0  0  0  0  0  0  0
   -2.2075    0.3664    2.9694 H   0  0  0  0  0  0  0  0  0  0  0  0
   -0.3463    0.5244    1.5131 H   0  0  0  0  0  0  0  0  0  0  0  0
    0.0869    1.0864    3.6976 H   0  0  0  0  0  0  0  0  0  0  0  0
  1  2  1  0
  1  3  1  0
  1  4  1  0
  1  8  1  0
  5  6  1  0
  5  7  1  0
  5  8  1  0
  5 12  1  0
  9 10  1  0
  9 11  1  0
  9 12  1  0
  9 13  1  0
 13 14  1  0
 14 15  1  0
 15 16  1  0
 15 17  1  0
 16 21  1  0
 17 18  1  0
 17 19  1  0
 19 20  1  0
 19 21  1  0
 21 22  1  0
 22 23  1  0
 22 31  1  0
 23 24  1  0
 24 25  1  0
 25 26  1  0
 25 31  1  0
 26 27  1  0
 26 28  1  0
 28 29  1  0
 29 30  1  0
 30 31  1  0
  1 32  1  0
  2 33  1  0
  3 34  1  0
  4 35  1  0
  5 36  1  0
  6 37  1  0
  7 38  1  0
  9 39  1  0
 10 40  1  0
 11 41  1  0
 14 42  1  0
 14 43  1  0
 15 44  1  6
 17 45  1  1
 18 46  1  0
 19 47  1  1
 20 48  1  0
 21 49  1  1
 23 50  1  0
 23 51  1  0
 24 52  1  0
 25 53  1  0
 26 54  1  1
 27 55  1  0
 27 56  1  0
 28 57  1  0
 29 58  1  0
 29 59  1  0
 30 60  1  0
 31 61  1  0
M  END
$$$$
ADENYLATE KINASE
     RDKit          3D

 61 63  0  0  0  0  0  0  0  0999 V2000
   -2.0863   -0.1755    4.5265 P   0  0  0  0  0  0  0  0  0  0  0  0
   -2.9859   -1.5631    4.9471 O   0  0  0  0  0  0  0  0  0  0  0  0
   -2.3865    1.0532    5.6565 O   0  0  0  0  0  0  0  0  0  0  0  0
   -3.5279   -0.2704    3.6084 O   0  0  0  0  0  0  0  0  0  0  0  0
    0.6281    0.1795    3.9917 P   0  0  0  0  0  0  0  0  0  0  0  0
    0.6274    1.5615    4.9909 O   0  0  0  0  0  0  0  0  0  0  0  0
    0.5471   -0.8151    5.3578 O   0  0  0  0  0  0  0  0  0  0  0  0
   -0.7016    0.7352    4.8661 O   0  0  0  0  0  0  0  0  0  0  0  0
    2.2136    0.7346    1.8677 P   0  0  0  0  0  0  0  0  0  0  0  0
    3.3437    1.8470    1.3080 O   0  0  0  0  0  0  0  0  0  0  0  0
    3.0718   -0.6636    2.3156 O   0  0  0  0  0  0  0  0  0  0  0  0
    1.5742   -0.5178    2.7954 O   0  0  0  0  0  0  0  0  0  0  0  0
    2.1628    0.6053    0.1824 O   0  0  0  0  0  0  0  0  0  0  0  0
    1.3277    1.5287   -0.3942 C   0  0  0  0  0  0  0  0  0  0  0  0
    1.2746    1.4217   -1.8976 C   0  0  1  0  0  0  0  0  0  0  0  0
    0.8362    0.2167   -2.3798 O   0  0  0  0  0  0  0  0  0  0  0  0
    0.4524    2.5231   -2.5141 C   0  0  1  0  0  0  0  0  0  0  0  0
    1.0954    3.1024   -3.5939 O   0  0  0  0  0  0  0  0  0  0  0  0
   -0.7937    1.7499   -2.9491 C   0  0  1  0  0  0  0  0  0  0  0  0
   -0.9088    1.8740   -4.3386 O   0  0  0  0  0  0  0  0  0  0  0  0
   -0.5663    0.3334   -2.5240 C   0  0  2  0  0  0  0  0  0  0  0  0
   -1.0987    0.0341   -1.2267 N   0  0  0  0  0  0  0  0  0  0  0  0
   -2.5129    0.2180   -1.0841 C   0  0  0  0  0  0  0  0  0  0  0  0
   -2.7237   -0.4437    0.2122 N   0  0  0  0  0  0  0  0  0  0  0  0
   -1.8773   -1.6436    0.1180 C   0  0  0  0  0  0  0  0  0  0  0  0
   -2.7061   -2.8289   -0.1991 C   0  0  2  0  0  0  0  0  0  0  0  0
   -2.9978   -3.5598    1.0150 N   0  0  0  0  0  0  0  0  0  0  0  0
   -2.1772   -3.7427   -1.1620 N   0  0  0  0  0  0  0  0  0  0  0  0
   -0.7517   -3.5465   -1.3906 C   0  0  0  0  0  0  0  0  0  0  0  0
   -0.6711   -2.1975   -1.9545 N   0  0  0  0  0  0  0  0  0  0  0  0
   -0.7852   -1.3018   -0.8378 C   0  0  0  0  0  0  0  0  0  0  0  0
   -2.2078   -0.9592    3.3846 H   0  0  0  0  0  0  0  0  0  0  0  0
   -2.7449   -1.8453    5.8633 H   0  0  0  0  0  0  0  0  0  0  0  0
   -3.0618    1.6443    5.2403 H   0  0  0  0  0  0  0  0  0  0  0  0
   -4.0603    0.5781    3.7333 H   0  0  0  0  0  0  0  0  0  0  0  0
   -0.1741    0.7466    2.9727 H   0  0  0  0  0  0  0  0  0  0  0  0
    1.5596    1.9186    5.0937 H   0  0  0  0  0  0  0  0  0  0  0  0
    0.2937   -1.7233    5.0069 H   0  0  0  0  0  0  0  0  0  0  0  0
    1.9781    1.9986    2.4381 H   0  0  0  0  0  0  0  0  0  0  0  0
    4.2312    1.4802    1.5377 H   0  0  0  0  0  0  0  0  0  0  0  0
    3.9792   -0.5505    1.9286 H   0  0  0  0  0  0  0  0  0  0  0  0
    1.7318    2.5366   -0.1649 H   0  0  0  0  0  0  0  0  0  0  0  0
    0.3467    1.4728    0.0833 H   0  0  0  0  0  0  0  0  0  0  0  0
    2.3427    1.5355   -2.2365 H   0  0  0  0  0  0  0  0  0  0  0  0
    0.2027    3.3362   -1.8055 H   0  0  0  0  0  0  0  0  0  0  0  0
    0.8363    4.0347   -3.7606 H   0  0  0  0  0  0  0  0  0  0  0  0
   -1.6558    2.2386   -2.4707 H   0  0  0  0  0  0  0  0  0  0  0  0
   -0.8523    0.9999   -4.7985 H   0  0  0  0  0  0  0  0  0  0  0  0
   -0.9090   -0.3347   -3.3366 H   0  0  0  0  0  0  0  0  0  0  0  0
   -3.1205   -0.2362   -1.8724 H   0  0  0  0  0  0  0  0  0  0  0  0
   -2.6983    1.3026   -0.9405 H   0  0  0  0  0  0  0  0  0  0  0  0
   -2.3201    0.2013    0.9530 H   0  0  0  0  0  0  0  0  0  0  0  0
   -1.4210   -1.7670    1.1328 H   0  0  0  0  0  0  0  0  0  0  0  0
   -3.6967   -2.4819   -0.5997 H   0  0  0  0  0  0  0  0  0  0  0  0
   -3.8041   -3.1960    1.5356 H   0  0  0  0  0  0  0  0  0  0  0  0
   -2.9154   -4.5774    0.9232 H   0  0  0  0  0  0  0  0  0  0  0  0
   -2.4093   -4.7243   -0.9719 H   0  0  0  0  0  0  0  0  0  0  0  0
   -0.2699   -3.5303   -0.3990 H   0  0  0  0  0  0  0  0  0  0  0  0
   -0.3775   -4.3254   -2.0560 H   0  0  0  0  0  0  0  0  0  0  0  0
    0.2676   -2.0646   -2.3927 H   0  0  0  0  0  0  0  0  0  0  0  0
    0.2130   -1.2895   -0.3456 H   0  0  0  0  0  0  0  0  0  0  0  0
  1  2  1  0
  1  3  1  0
  1  4  1  0
  1  8  1  0
  5  6  1  0
  5  7  1  0
  5  8  1  0
  5 12  1  0
  9 10  1  0
  9 11  1  0
  9 12  1  0
  9 13  1  0
 13 14  1  0
 14 15  1  0
 15 16  1  0
 15 17  1  0
 16 21  1  0
 17 18  1  0
 17 19  1  0
 19 20  1  0
 19 21  1  0
 21 22  1  0
 22 23  1  0
 22 31  1  0
 23 24  1  0
 24 25  1  0
 25 26  1  0
 25 31  1  0
 26 27  1  0
 26 28  1  0
 28 29  1  0
 29 30  1  0
 30 31  1  0
  1 32  1  0
  2 33  1  0
  3 34  1  0
  4 35  1  0
  5 36  1  0
  6 37  1  0
  7 38  1  0
  9 39  1  0
 10 40  1  0
 11 41  1  0
 14 42  1  0
 14 43  1  0
 15 44  1  6
 17 45  1  1
 18 46  1  0
 19 47  1  1
 20 48  1  0
 21 49  1  6
 23 50  1  0
 23 51  1  0
 24 52  1  0
 25 53  1  0
 26 54  1  6
 27 55  1  0
 27 56  1  0
 28 57  1  0
 29 58  1  0
 29 59  1  0
 30 60  1  0
 31 61  1  0
M  END
$$$$
ADENYLATE KINASE
     RDKit          3D

 61 63  0  0  0  0  0  0  0  0999 V2000
   -3.0039   -2.5243   -4.2623 P   0  0  0  0  0  0  0  0  0  0  0  0
   -4.4050   -1.6961   -4.6755 O   0  0  0  0  0  0  0  0  0  0  0  0
   -2.3866   -1.8721   -2.8578 O   0  0  0  0  0  0  0  0  0  0  0  0
   -3.3238   -2.1903   -5.8738 O   0  0  0  0  0  0  0  0  0  0  0  0
   -1.0822   -0.6962   -4.9500 P   0  0  0  0  0  0  0  0  0  0  0  0
   -1.3923   -0.1829   -6.5082 O   0  0  0  0  0  0  0  0  0  0  0  0
    0.5625   -0.8952   -4.7732 O   0  0  0  0  0  0  0  0  0  0  0  0
   -1.3430   -2.1440   -4.0967 O   0  0  0  0  0  0  0  0  0  0  0  0
   -1.5651    1.8231   -3.7995 P   0  0  0  0  0  0  0  0  0  0  0  0
   -3.1098    2.5202   -3.8316 O   0  0  0  0  0  0  0  0  0  0  0  0
   -0.5257    3.1507   -3.5518 O   0  0  0  0  0  0  0  0  0  0  0  0
   -0.6918    0.9269   -4.9050 O   0  0  0  0  0  0  0  0  0  0  0  0
   -1.3317    1.0005   -2.3631 O   0  0  0  0  0  0  0  0  0  0  0  0
   -1.4938    1.7730   -1.2382 C   0  0  0  0  0  0  0  0  0  0  0  0
   -1.2738    0.9922    0.0416 C   0  0  1  0  0  0  0  0  0  0  0  0
   -0.0073    0.4476    0.1395 O   0  0  0  0  0  0  0  0  0  0  0  0
   -1.4498    1.9187    1.2186 C   0  0  1  0  0  0  0  0  0  0  0  0
   -2.7923    1.9424    1.5593 O   0  0  0  0  0  0  0  0  0  0  0  0
   -0.6663    1.1700    2.2758 C   0  0  1  0  0  0  0  0  0  0  0  0
   -1.5540    0.2932    2.8962 O   0  0  0  0  0  0  0  0  0  0  0  0
    0.3408    0.4204    1.4776 C   0  0  2  0  0  0  0  0  0  0  0  0
    1.6769    0.9486    1.6011 N   0  0  0  0  0  0  0  0  0  0  0  0
    2.2004    0.9214    2.9467 C   0  0  0  0  0  0  0  0  0  0  0  0
    3.0801   -0.2198    3.0630 N   0  0  0  0  0  0  0  0  0  0  0  0
    2.9174   -0.9718    1.8234 C   0  0  0  0  0  0  0  0  0  0  0  0
    4.1488   -1.7396    1.4626 C   0  0  2  0  0  0  0  0  0  0  0  0
    4.6634   -2.3622    2.6782 N   0  0  0  0  0  0  0  0  0  0  0  0
    5.1484   -1.0956    0.7305 N   0  0  0  0  0  0  0  0  0  0  0  0
    4.8949    0.1774    0.1739 C   0  0  0  0  0  0  0  0  0  0  0  0
    3.8379    0.9333    0.7666 N   0  0  0  0  0  0  0  0  0  0  0  0
    2.6200    0.1573    0.8705 C   0  0  0  0  0  0  0  0  0  0  0  0
   -2.5342   -3.6980   -3.6307 H   0  0  0  0  0  0  0  0  0  0  0  0
   -4.7751   -1.3071   -3.8347 H   0  0  0  0  0  0  0  0  0  0  0  0
   -3.1253   -1.3399   -2.4341 H   0  0  0  0  0  0  0  0  0  0  0  0
   -2.4819   -2.4261   -6.3681 H   0  0  0  0  0  0  0  0  0  0  0  0
   -0.1439   -0.7738   -6.0233 H   0  0  0  0  0  0  0  0  0  0  0  0
   -2.3898   -0.0354   -6.5565 H   0  0  0  0  0  0  0  0  0  0  0  0
    0.8264   -0.8100   -3.8027 H   0  0  0  0  0  0  0  0  0  0  0  0
   -1.7487    3.1079   -4.3810 H   0  0  0  0  0  0  0  0  0  0  0  0
   -3.7604    1.7928   -3.6599 H   0  0  0  0  0  0  0  0  0  0  0  0
    0.3427    2.8311   -3.1866 H   0  0  0  0  0  0  0  0  0  0  0  0
   -2.5440    2.1300   -1.2106 H   0  0  0  0  0  0  0  0  0  0  0  0
   -0.8629    2.6759   -1.2743 H   0  0  0  0  0  0  0  0  0  0  0  0
   -1.9973    0.1694    0.1000 H   0  0  0  0  0  0  0  0  0  0  0  0
   -1.0830    2.9453    1.0438 H   0  0  0  0  0  0  0  0  0  0  0  0
   -3.2099    2.7294    1.1501 H   0  0  0  0  0  0  0  0  0  0  0  0
   -0.2377    1.8656    3.0323 H   0  0  0  0  0  0  0  0  0  0  0  0
   -1.3484   -0.6648    2.7231 H   0  0  0  0  0  0  0  0  0  0  0  0
    0.3400   -0.6403    1.8577 H   0  0  0  0  0  0  0  0  0  0  0  0
    2.8348    1.8521    3.0288 H   0  0  0  0  0  0  0  0  0  0  0  0
    1.4373    0.9537    3.7385 H   0  0  0  0  0  0  0  0  0  0  0  0
    2.9023   -0.8102    3.9039 H   0  0  0  0  0  0  0  0  0  0  0  0
    2.0826   -1.6657    1.9872 H   0  0  0  0  0  0  0  0  0  0  0  0
    3.7841   -2.6162    0.8483 H   0  0  0  0  0  0  0  0  0  0  0  0
    5.5356   -2.9096    2.5025 H   0  0  0  0  0  0  0  0  0  0  0  0
    3.9547   -3.0789    3.0117 H   0  0  0  0  0  0  0  0  0  0  0  0
    5.5970   -1.7269    0.0054 H   0  0  0  0  0  0  0  0  0  0  0  0
    5.8289    0.7804    0.2286 H   0  0  0  0  0  0  0  0  0  0  0  0
    4.6588    0.0660   -0.9086 H   0  0  0  0  0  0  0  0  0  0  0  0
    3.7125    1.8046    0.2213 H   0  0  0  0  0  0  0  0  0  0  0  0
    2.2504   -0.1918   -0.1086 H   0  0  0  0  0  0  0  0  0  0  0  0
  1  2  1  0
  1  3  1  0
  1  4  1  0
  1  8  1  0
  5  6  1  0
  5  7  1  0
  5  8  1  0
  5 12  1  0
  9 10  1  0
  9 11  1  0
  9 12  1  0
  9 13  1  0
 13 14  1  0
 14 15  1  0
 15 16  1  0
 15 17  1  0
 16 21  1  0
 17 18  1  0
 17 19  1  0
 19 20  1  0
 19 21  1  0
 21 22  1  0
 22 23  1  0
 22 31  1  0
 23 24  1  0
 24 25  1  0
 25 26  1  0
 25 31  1  0
 26 27  1  0
 26 28  1  0
 28 29  1  0
 29 30  1  0
 30 31  1  0
  1 32  1  0
  2 33  1  0
  3 34  1  0
  4 35  1  0
  5 36  1  0
  6 37  1  0
  7 38  1  0
  9 39  1  0
 10 40  1  0
 11 41  1  0
 14 42  1  0
 14 43  1  0
 15 44  1  1
 17 45  1  6
 18 46  1  0
 19 47  1  1
 20 48  1  0
 21 49  1  1
 23 50  1  0
 23 51  1  0
 24 52  1  0
 25 53  1  0
 26 54  1  6
 27 55  1  0
 27 56  1  0
 28 57  1  0
 29 58  1  0
 29 59  1  0
 30 60  1  0
 31 61  1  0
M  END
$$$$
ADENYLATE KINASE
     RDKit          3D

 61 63  0  0  0  0  0  0  0  0999 V2000
   -4.6664   -1.7562    1.0858 P   0  0  0  0  0  0  0  0  0  0  0  0
   -4.5845   -2.7732    2.4077 O   0  0  0  0  0  0  0  0  0  0  0  0
   -3.2529   -1.0168    0.5062 O   0  0  0  0  0  0  0  0  0  0  0  0
   -5.5949   -2.6778    0.0173 O   0  0  0  0  0  0  0  0  0  0  0  0
   -4.9483    0.1800    3.0371 P   0  0  0  0  0  0  0  0  0  0  0  0
   -5.8770   -1.1134    3.5925 O   0  0  0  0  0  0  0  0  0  0  0  0
   -6.0294    1.4845    2.9993 O   0  0  0  0  0  0  0  0  0  0  0  0
   -5.6684   -0.5496    1.6922 O   0  0  0  0  0  0  0  0  0  0  0  0
   -2.1916    0.0125    3.4927 P   0  0  0  0  0  0  0  0  0  0  0  0
   -2.3355    0.9351    4.8852 O   0  0  0  0  0  0  0  0  0  0  0  0
   -2.3272    1.5924    2.9117 O   0  0  0  0  0  0  0  0  0  0  0  0
   -3.7318   -0.2628    4.1312 O   0  0  0  0  0  0  0  0  0  0  0  0
   -0.9096   -0.3990    2.4656 O   0  0  0  0  0  0  0  0  0  0  0  0
   -0.1102   -1.3578    3.0805 C   0  0  0  0  0  0  0  0  0  0  0  0
    1.0114   -1.6873    2.1281 C   0  0  1  0  0  0  0  0  0  0  0  0
    1.7872   -0.5705    1.8227 O   0  0  0  0  0  0  0  0  0  0  0  0
    2.0467   -2.6092    2.7221 C   0  0  1  0  0  0  0  0  0  0  0  0
    1.7115   -3.9536    2.5901 O   0  0  0  0  0  0  0  0  0  0  0  0
    3.2745   -2.2430    1.8816 C   0  0  1  0  0  0  0  0  0  0  0  0
    3.6468   -3.3520    1.1565 O   0  0  0  0  0  0  0  0  0  0  0  0
    2.7455   -1.1965    0.9899 C   0  0  2  0  0  0  0  0  0  0  0  0
    3.6176   -0.3499    0.3312 N   0  0  0  0  0  0  0  0  0  0  0  0
    4.5156    0.4949    0.9663 C   0  0  0  0  0  0  0  0  0  0  0  0
    4.6893    1.6953    0.1307 N   0  0  0  0  0  0  0  0  0  0  0  0
    3.3918    1.7515   -0.5150 C   0  0  0  0  0  0  0  0  0  0  0  0
    3.4076    2.5000   -1.8266 C   0  0  2  0  0  0  0  0  0  0  0  0
    3.0794    3.8947   -1.5243 N   0  0  0  0  0  0  0  0  0  0  0  0
    2.3201    1.9549   -2.6171 N   0  0  0  0  0  0  0  0  0  0  0  0
    1.3124    1.2927   -1.7903 C   0  0  0  0  0  0  0  0  0  0  0  0
    1.8087    0.0466   -1.2196 N   0  0  0  0  0  0  0  0  0  0  0  0
    3.1774    0.2854   -0.8568 C   0  0  0  0  0  0  0  0  0  0  0  0
   -3.4954   -1.6764    1.8758 H   0  0  0  0  0  0  0  0  0  0  0  0
   -4.8105   -3.7098    2.2215 H   0  0  0  0  0  0  0  0  0  0  0  0
   -3.2778   -1.1748   -0.4860 H   0  0  0  0  0  0  0  0  0  0  0  0
   -5.0282   -2.8635   -0.7918 H   0  0  0  0  0  0  0  0  0  0  0  0
   -5.7657    0.4817    1.9278 H   0  0  0  0  0  0  0  0  0  0  0  0
   -6.6619   -0.7992    4.1150 H   0  0  0  0  0  0  0  0  0  0  0  0
   -6.0027    1.9987    3.8326 H   0  0  0  0  0  0  0  0  0  0  0  0
   -2.8962   -0.9692    4.2135 H   0  0  0  0  0  0  0  0  0  0  0  0
   -1.7423    0.6560    5.6294 H   0  0  0  0  0  0  0  0  0  0  0  0
   -2.9644    1.5443    2.1524 H   0  0  0  0  0  0  0  0  0  0  0  0
   -0.7032   -2.2636    3.2697 H   0  0  0  0  0  0  0  0  0  0  0  0
    0.2598   -0.9509    4.0223 H   0  0  0  0  0  0  0  0  0  0  0  0
    0.6240   -2.1754    1.2245 H   0  0  0  0  0  0  0  0  0  0  0  0
    2.1771   -2.3731    3.7916 H   0  0  0  0  0  0  0  0  0  0  0  0
    1.1068   -4.1311    3.3696 H   0  0  0  0  0  0  0  0  0  0  0  0
    4.0393   -1.9133    2.6073 H   0  0  0  0  0  0  0  0  0  0  0  0
    3.7607   -3.0951    0.2051 H   0  0  0  0  0  0  0  0  0  0  0  0
    2.1145   -1.7139    0.2269 H   0  0  0  0  0  0  0  0  0  0  0  0
    4.3593    0.8358    1.9776 H   0  0  0  0  0  0  0  0  0  0  0  0
    5.5358    0.0106    0.9553 H   0  0  0  0  0  0  0  0  0  0  0  0
    5.4054    1.5285   -0.5936 H   0  0  0  0  0  0  0  0  0  0  0  0
    2.6439    2.1246    0.1843 H   0  0  0  0  0  0  0  0  0  0  0  0
    4.3589    2.4078   -2.3542 H   0  0  0  0  0  0  0  0  0  0  0  0
    3.6950    4.4919   -2.1474 H   0  0  0  0  0  0  0  0  0  0  0  0
    3.3575    4.1464   -0.5429 H   0  0  0  0  0  0  0  0  0  0  0  0
    1.8211    2.6967   -3.1435 H   0  0  0  0  0  0  0  0  0  0  0  0
    0.4759    1.0622   -2.5066 H   0  0  0  0  0  0  0  0  0  0  0  0
    0.9695    1.9675   -0.9774 H   0  0  0  0  0  0  0  0  0  0  0  0
    1.8185   -0.6507   -2.0167 H   0  0  0  0  0  0  0  0  0  0  0  0
    3.8731    0.0736   -1.6989 H   0  0  0  0  0  0  0  0  0  0  0  0
  1  2  1  0
  1  3  1  0
  1  4  1  0
  1  8  1  0
  5  6  1  0
  5  7  1  0
  5  8  1  0
  5 12  1  0
  9 10  1  0
  9 11  1  0
  9 12  1  0
  9 13  1  0
 13 14  1  0
 14 15  1  0
 15 16  1  0
 15 17  1  0
 16 21  1  0
 17 18  1  0
 17 19  1  0
 19 20  1  0
 19 21  1  0
 21 22  1  0
 22 23  1  0
 22 31  1  0
 23 24  1  0
 24 25  1  0
 25 26  1  0
 25 31  1  0
 26 27  1  0
 26 28  1  0
 28 29  1  0
 29 30  1  0
 30 31  1  0
  1 32  1  0
  2 33  1  0
  3 34  1  0
  4 35  1  0
  5 36  1  0
  6 37  1  0
  7 38  1  0
  9 39  1  0
 10 40  1  0
 11 41  1  0
 14 42  1  0
 14 43  1  0
 15 44  1  6
 17 45  1  1
 18 46  1  0
 19 47  1  1
 20 48  1  0
 21 49  1  6
 23 50  1  0
 23 51  1  0
 24 52  1  0
 25 53  1  0
 26 54  1  6
 27 55  1  0
 27 56  1  0
 28 57  1  0
 29 58  1  0
 29 59  1  0
 30 60  1  0
 31 61  1  0
M  END
$$$$
ADENYLATE KINASE
     RDKit          3D

 61 63  0  0  0  0  0  0  0  0999 V2000
   -4.9093    2.1739   -0.4252 P   0  0  0  0  0  0  0  0  0  0  0  0
   -5.8044    3.5096   -0.9532 O   0  0  0  0  0  0  0  0  0  0  0  0
   -5.7869    1.5021    0.8529 O   0  0  0  0  0  0  0  0  0  0  0  0
   -3.5663    2.8628    0.3006 O   0  0  0  0  0  0  0  0  0  0  0  0
   -4.0254    1.4598   -2.9618 P   0  0  0  0  0  0  0  0  0  0  0  0
   -4.9270    2.6085   -3.8042 O   0  0  0  0  0  0  0  0  0  0  0  0
   -3.7415   -0.0201   -3.7387 O   0  0  0  0  0  0  0  0  0  0  0  0
   -3.5558    2.0859   -1.4592 O   0  0  0  0  0  0  0  0  0  0  0  0
   -1.6108    2.4622   -3.6826 P   0  0  0  0  0  0  0  0  0  0  0  0
   -0.7526    3.8460   -4.0843 O   0  0  0  0  0  0  0  0  0  0  0  0
   -1.7388    2.6855   -5.3547 O   0  0  0  0  0  0  0  0  0  0  0  0
   -2.7710    2.5010   -2.4469 O   0  0  0  0  0  0  0  0  0  0  0  0
   -1.0896    1.1639   -2.7439 O   0  0  0  0  0  0  0  0  0  0  0  0
    0.1559    1.4303   -2.1535 C   0  0  0  0  0  0  0  0  0  0  0  0
    0.5645    0.2270   -1.3276 C   0  0  1  0  0  0  0  0  0  0  0  0
    1.7775    0.4346   -0.7273 O   0  0  0  0  0  0  0  0  0  0  0  0
   -0.3702    0.1413   -0.1382 C   0  0  1  0  0  0  0  0  0  0  0  0
   -1.3510   -0.7947   -0.4661 O   0  0  0  0  0  0  0  0  0  0  0  0
    0.5239   -0.3053    1.0019 C   0  0  1  0  0  0  0  0  0  0  0  0
   -0.0072   -1.5425    1.4347 O   0  0  0  0  0  0  0  0  0  0  0  0
    1.8610   -0.4233    0.3736 C   0  0  2  0  0  0  0  0  0  0  0  0
    2.9818   -0.0373    1.1180 N   0  0  0  0  0  0  0  0  0  0  0  0
    4.1754   -0.2337    0.3183 C   0  0  0  0  0  0  0  0  0  0  0  0
    5.0249   -1.1368    1.0209 N   0  0  0  0  0  0  0  0  0  0  0  0
    4.5269   -1.2362    2.3710 C   0  0  0  0  0  0  0  0  0  0  0  0
    4.4785   -2.6936    2.7456 C   0  0  2  0  0  0  0  0  0  0  0  0
    3.7531   -3.5114    1.8310 N   0  0  0  0  0  0  0  0  0  0  0  0
    3.8220   -2.7073    4.0580 N   0  0  0  0  0  0  0  0  0  0  0  0
    2.4350   -2.4533    3.7704 C   0  0  0  0  0  0  0  0  0  0  0  0
    2.1442   -1.3057    3.0114 N   0  0  0  0  0  0  0  0  0  0  0  0
    3.1910   -0.5640    2.4142 C   0  0  0  0  0  0  0  0  0  0  0  0
   -5.5877    0.9807   -0.8057 H   0  0  0  0  0  0  0  0  0  0  0  0
   -5.4590    3.7830   -1.8526 H   0  0  0  0  0  0  0  0  0  0  0  0
   -5.1706    1.3340    1.6172 H   0  0  0  0  0  0  0  0  0  0  0  0
   -3.3405    2.4128    1.1529 H   0  0  0  0  0  0  0  0  0  0  0  0
   -4.7847    0.3112   -2.7432 H   0  0  0  0  0  0  0  0  0  0  0  0
   -4.3197    3.0630   -4.4268 H   0  0  0  0  0  0  0  0  0  0  0  0
   -2.8138   -0.0306   -4.1113 H   0  0  0  0  0  0  0  0  0  0  0  0
   -2.0849    3.2436   -2.6014 H   0  0  0  0  0  0  0  0  0  0  0  0
    0.1583    3.7476   -3.7200 H   0  0  0  0  0  0  0  0  0  0  0  0
   -2.4888    2.1240   -5.6792 H   0  0  0  0  0  0  0  0  0  0  0  0
   -0.0121    2.3066   -1.4955 H   0  0  0  0  0  0  0  0  0  0  0  0
    0.9258    1.6771   -2.9015 H   0  0  0  0  0  0  0  0  0  0  0  0
    0.5846   -0.6849   -1.9253 H   0  0  0  0  0  0  0  0  0  0  0  0
   -0.9127    1.0832    0.0653 H   0  0  0  0  0  0  0  0  0  0  0  0
   -0.8752   -1.5372   -0.9264 H   0  0  0  0  0  0  0  0  0  0  0  0
    0.4278    0.4665    1.7746 H   0  0  0  0  0  0  0  0  0  0  0  0
   -1.0069   -1.4892    1.3498 H   0  0  0  0  0  0  0  0  0  0  0  0
    1.9378   -1.4498   -0.0856 H   0  0  0  0  0  0  0  0  0  0  0  0
    3.9381   -0.6883   -0.6805 H   0  0  0  0  0  0  0  0  0  0  0  0
    4.6765    0.7398    0.0757 H   0  0  0  0  0  0  0  0  0  0  0  0
    5.1993   -2.0476    0.5692 H   0  0  0  0  0  0  0  0  0  0  0  0
    5.2972   -0.7792    3.0310 H   0  0  0  0  0  0  0  0  0  0  0  0
    5.5180   -3.0650    2.8064 H   0  0  0  0  0  0  0  0  0  0  0  0
    4.3335   -4.0003    1.1225 H   0  0  0  0  0  0  0  0  0  0  0  0
    2.9177   -3.0622    1.3998 H   0  0  0  0  0  0  0  0  0  0  0  0
    4.2576   -1.9838    4.6573 H   0  0  0  0  0  0  0  0  0  0  0  0
    2.0384   -3.3579    3.2562 H   0  0  0  0  0  0  0  0  0  0  0  0
    1.9038   -2.4662    4.7670 H   0  0  0  0  0  0  0  0  0  0  0  0
    1.4984   -0.6893    3.5874 H   0  0  0  0  0  0  0  0  0  0  0  0
    3.3405    0.3438    3.0761 H   0  0  0  0  0  0  0  0  0  0  0  0
  1  2  1  0
  1  3  1  0
  1  4  1  0
  1  8  1  0
  5  6  1  0
  5  7  1  0
  5  8  1  0
  5 12  1  0
  9 10  1  0
  9 11  1  0
  9 12  1  0
  9 13  1  0
 13 14  1  0
 14 15  1  0
 15 16  1  0
 15 17  1  0
 16 21  1  0
 17 18  1  0
 17 19  1  0
 19 20  1  0
 19 21  1  0
 21 22  1  0
 22 23  1  0
 22 31  1  0
 23 24  1  0
 24 25  1  0
 25 26  1  0
 25 31  1  0
 26 27  1  0
 26 28  1  0
 28 29  1  0
 29 30  1  0
 30 31  1  0
  1 32  1  0
  2 33  1  0
  3 34  1  0
  4 35  1  0
  5 36  1  0
  6 37  1  0
  7 38  1  0
  9 39  1  0
 10 40  1  0
 11 41  1  0
 14 42  1  0
 14 43  1  0
 15 44  1  6
 17 45  1  1
 18 46  1  0
 19 47  1  1
 20 48  1  0
 21 49  1  6
 23 50  1  0
 23 51  1  0
 24 52  1  0
 25 53  1  0
 26 54  1  1
 27 55  1  0
 27 56  1  0
 28 57  1  0
 29 58  1  0
 29 59  1  0
 30 60  1  0
 31 61  1  0
M  END
$$$$
ADENYLATE KINASE
     RDKit          3D

 61 63  0  0  0  0  0  0  0  0999 V2000
    1.3031    2.4049    3.3541 P   0  0  0  0  0  0  0  0  0  0  0  0
    0.3236    1.4499    2.3978 O   0  0  0  0  0  0  0  0  0  0  0  0
    2.8597    2.9977    3.6477 O   0  0  0  0  0  0  0  0  0  0  0  0
    0.7537    3.1800    1.9486 O   0  0  0  0  0  0  0  0  0  0  0  0
    2.5036   -0.0335    3.3210 P   0  0  0  0  0  0  0  0  0  0  0  0
    3.2339   -0.7848    4.6243 O   0  0  0  0  0  0  0  0  0  0  0  0
    3.6568    1.0822    2.7942 O   0  0  0  0  0  0  0  0  0  0  0  0
    2.3281    1.3617    4.2369 O   0  0  0  0  0  0  0  0  0  0  0  0
    4.0745   -1.4549    1.6539 P   0  0  0  0  0  0  0  0  0  0  0  0
    3.8730   -2.3258    3.0568 O   0  0  0  0  0  0  0  0  0  0  0  0
    4.2916   -2.8437    0.7239 O   0  0  0  0  0  0  0  0  0  0  0  0
    4.0290   -0.6594    3.1033 O   0  0  0  0  0  0  0  0  0  0  0  0
    2.7542   -0.8242    0.7715 O   0  0  0  0  0  0  0  0  0  0  0  0
    3.1270   -0.8865   -0.5427 C   0  0  0  0  0  0  0  0  0  0  0  0
    2.0472   -0.3652   -1.4799 C   0  0  1  0  0  0  0  0  0  0  0  0
    0.8891   -1.0868   -1.3626 O   0  0  0  0  0  0  0  0  0  0  0  0
    1.7597    1.0591   -1.1019 C   0  0  1  0  0  0  0  0  0  0  0  0
    2.4486    1.9016   -1.9562 O   0  0  0  0  0  0  0  0  0  0  0  0
    0.2631    1.1561   -1.2470 C   0  0  1  0  0  0  0  0  0  0  0  0
    0.0338    1.9840   -2.3546 O   0  0  0  0  0  0  0  0  0  0  0  0
   -0.1889   -0.2385   -1.4624 C   0  0  2  0  0  0  0  0  0  0  0  0
   -1.2480   -0.6413   -0.5606 N   0  0  0  0  0  0  0  0  0  0  0  0
   -1.6658   -2.0099   -0.7998 C   0  0  0  0  0  0  0  0  0  0  0  0
   -2.6693   -1.9668   -1.8203 N   0  0  0  0  0  0  0  0  0  0  0  0
   -3.0876   -0.6033   -1.9781 C   0  0  0  0  0  0  0  0  0  0  0  0
   -4.5743   -0.4806   -2.0527 C   0  0  2  0  0  0  0  0  0  0  0  0
   -4.9022   -0.0794   -3.4225 N   0  0  0  0  0  0  0  0  0  0  0  0
   -5.1583    0.4855   -1.1856 N   0  0  0  0  0  0  0  0  0  0  0  0
   -4.5950    0.5896    0.1168 C   0  0  0  0  0  0  0  0  0  0  0  0
   -3.3749   -0.1412    0.3133 N   0  0  0  0  0  0  0  0  0  0  0  0
   -2.4674    0.0846   -0.7914 C   0  0  0  0  0  0  0  0  0  0  0  0
   -0.0273    2.8732    3.2021 H   0  0  0  0  0  0  0  0  0  0  0  0
    0.7491    0.6254    2.0499 H   0  0  0  0  0  0  0  0  0  0  0  0
    3.0550    3.6559    2.9555 H   0  0  0  0  0  0  0  0  0  0  0  0
    1.5867    3.4726    1.4765 H   0  0  0  0  0  0  0  0  0  0  0  0
    3.1694    0.7969    4.2692 H   0  0  0  0  0  0  0  0  0  0  0  0
    2.6142   -1.4106    5.1010 H   0  0  0  0  0  0  0  0  0  0  0  0
    3.3999    1.5177    1.9213 H   0  0  0  0  0  0  0  0  0  0  0  0
    5.3726   -1.7237    1.2001 H   0  0  0  0  0  0  0  0  0  0  0  0
    3.1841   -3.0613    3.0099 H   0  0  0  0  0  0  0  0  0  0  0  0
    3.4071   -3.2884    0.7524 H   0  0  0  0  0  0  0  0  0  0  0  0
    4.0872   -0.3838   -0.7540 H   0  0  0  0  0  0  0  0  0  0  0  0
    3.2957   -1.9555   -0.8584 H   0  0  0  0  0  0  0  0  0  0  0  0
    2.4351   -0.4718   -2.5117 H   0  0  0  0  0  0  0  0  0  0  0  0
    2.0853    1.2730   -0.0713 H   0  0  0  0  0  0  0  0  0  0  0  0
    2.2922    2.8542   -1.8254 H   0  0  0  0  0  0  0  0  0  0  0  0
   -0.1268    1.6386   -0.3424 H   0  0  0  0  0  0  0  0  0  0  0  0
   -0.8508    2.3891   -2.3624 H   0  0  0  0  0  0  0  0  0  0  0  0
   -0.5780   -0.3327   -2.5032 H   0  0  0  0  0  0  0  0  0  0  0  0
   -0.8476   -2.6524   -1.1788 H   0  0  0  0  0  0  0  0  0  0  0  0
   -1.9928   -2.4459    0.1579 H   0  0  0  0  0  0  0  0  0  0  0  0
   -3.4139   -2.6672   -1.7494 H   0  0  0  0  0  0  0  0  0  0  0  0
   -2.5775   -0.1842   -2.8778 H   0  0  0  0  0  0  0  0  0  0  0  0
   -5.0233   -1.4882   -1.9320 H   0  0  0  0  0  0  0  0  0  0  0  0
   -4.2505   -0.5519   -4.0731 H   0  0  0  0  0  0  0  0  0  0  0  0
   -5.8876   -0.4015   -3.6176 H   0  0  0  0  0  0  0  0  0  0  0  0
   -6.2021    0.2836   -1.1769 H   0  0  0  0  0  0  0  0  0  0  0  0
   -4.3726    1.6674    0.2853 H   0  0  0  0  0  0  0  0  0  0  0  0
   -5.3016    0.2965    0.9229 H   0  0  0  0  0  0  0  0  0  0  0  0
   -3.5145   -1.1404    0.5349 H   0  0  0  0  0  0  0  0  0  0  0  0
   -2.3265    1.1615   -0.9221 H   0  0  0  0  0  0  0  0  0  0  0  0
  1  2  1  0
  1  3  1  0
  1  4  1  0
  1  8  1  0
  5  6  1  0
  5  7  1  0
  5  8  1  0
  5 12  1  0
  9 10  1  0
  9 11  1  0
  9 12  1  0
  9 13  1  0
 13 14  1  0
 14 15  1  0
 15 16  1  0
 15 17  1  0
 16 21  1  0
 17 18  1  0
 17 19  1  0
 19 20  1  0
 19 21  1  0
 21 22  1  0
 22 23  1  0
 22 31  1  0
 23 24  1  0
 24 25  1  0
 25 26  1  0
 25 31  1  0
 26 27  1  0
 26 28  1  0
 28 29  1  0
 29 30  1  0
 30 31  1  0
  1 32  1  0
  2 33  1  0
  3 34  1  0
  4 35  1  0
  5 36  1  0
  6 37  1  0
  7 38  1  0
  9 39  1  0
 10 40  1  0
 11 41  1  0
 14 42  1  0
 14 43  1  0
 15 44  1  6
 17 45  1  1
 18 46  1  0
 19 47  1  1
 20 48  1  0
 21 49  1  6
 23 50  1  0
 23 51  1  0
 24 52  1  0
 25 53  1  0
 26 54  1  1
 27 55  1  0
 27 56  1  0
 28 57  1  0
 29 58  1  0
 29 59  1  0
 30 60  1  0
 31 61  1  0
M  END
$$$$
ADENYLATE KINASE
     RDKit          3D

 61 63  0  0  0  0  0  0  0  0999 V2000
    0.4458    0.9918   -4.7441 P   0  0  0  0  0  0  0  0  0  0  0  0
    1.2917   -0.0172   -3.6559 O   0  0  0  0  0  0  0  0  0  0  0  0
    0.6321    0.0249   -6.1280 O   0  0  0  0  0  0  0  0  0  0  0  0
    2.0843    1.1762   -5.0193 O   0  0  0  0  0  0  0  0  0  0  0  0
   -1.6840    2.6035   -3.9300 P   0  0  0  0  0  0  0  0  0  0  0  0
   -0.6077    3.8674   -4.3238 O   0  0  0  0  0  0  0  0  0  0  0  0
   -2.7412    3.4131   -4.9553 O   0  0  0  0  0  0  0  0  0  0  0  0
   -1.1909    1.3459   -4.9327 O   0  0  0  0  0  0  0  0  0  0  0  0
   -3.3565    1.7587   -1.9435 P   0  0  0  0  0  0  0  0  0  0  0  0
   -3.6481    3.4128   -2.2741 O   0  0  0  0  0  0  0  0  0  0  0  0
   -4.7225    2.1466   -1.0660 O   0  0  0  0  0  0  0  0  0  0  0  0
   -1.7514    1.7858   -2.4425 O   0  0  0  0  0  0  0  0  0  0  0  0
   -2.8983    0.4031   -1.0855 O   0  0  0  0  0  0  0  0  0  0  0  0
   -3.3198    0.3668    0.2276 C   0  0  0  0  0  0  0  0  0  0  0  0
   -2.7560   -0.8989    0.8267 C   0  0  1  0  0  0  0  0  0  0  0  0
   -1.3645   -0.9184    0.7762 O   0  0  0  0  0  0  0  0  0  0  0  0
   -2.9613   -0.9494    2.3331 C   0  0  1  0  0  0  0  0  0  0  0  0
   -4.2677   -1.2303    2.6877 O   0  0  0  0  0  0  0  0  0  0  0  0
   -1.9894   -2.0616    2.6791 C   0  0  1  0  0  0  0  0  0  0  0  0
   -2.7336   -3.2314    2.8187 O   0  0  0  0  0  0  0  0  0  0  0  0
   -1.0822   -2.0881    1.5207 C   0  0  2  0  0  0  0  0  0  0  0  0
    0.2904   -2.1465    1.6686 N   0  0  0  0  0  0  0  0  0  0  0  0
    0.9779   -3.1636    2.3078 C   0  0  0  0  0  0  0  0  0  0  0  0
    2.1909   -2.5454    2.8737 N   0  0  0  0  0  0  0  0  0  0  0  0
    1.6701   -1.2337    3.2281 C   0  0  0  0  0  0  0  0  0  0  0  0
    2.7400   -0.2358    3.5585 C   0  0  2  0  0  0  0  0  0  0  0  0
    2.3422    0.4292    4.8032 N   0  0  0  0  0  0  0  0  0  0  0  0
    2.8292    0.7830    2.5593 N   0  0  0  0  0  0  0  0  0  0  0  0
    2.9421    0.3005    1.2176 C   0  0  0  0  0  0  0  0  0  0  0  0
    1.9426   -0.6866    0.8742 N   0  0  0  0  0  0  0  0  0  0  0  0
    0.9643   -0.8834    1.9127 C   0  0  0  0  0  0  0  0  0  0  0  0
   -0.4089    1.2706   -5.8258 H   0  0  0  0  0  0  0  0  0  0  0  0
    0.5871   -0.6616   -3.3358 H   0  0  0  0  0  0  0  0  0  0  0  0
    0.5638   -0.9470   -5.9239 H   0  0  0  0  0  0  0  0  0  0  0  0
    2.2448    1.9636   -5.6032 H   0  0  0  0  0  0  0  0  0  0  0  0
   -1.9749    3.9777   -3.8427 H   0  0  0  0  0  0  0  0  0  0  0  0
    0.2791    3.5286   -4.6122 H   0  0  0  0  0  0  0  0  0  0  0  0
   -3.3384    2.7877   -5.4609 H   0  0  0  0  0  0  0  0  0  0  0  0
   -3.5964    0.9516   -3.0517 H   0  0  0  0  0  0  0  0  0  0  0  0
   -2.9777    3.9032   -1.7022 H   0  0  0  0  0  0  0  0  0  0  0  0
   -4.4257    2.3128   -0.1371 H   0  0  0  0  0  0  0  0  0  0  0  0
   -4.4363    0.3185    0.2099 H   0  0  0  0  0  0  0  0  0  0  0  0
   -3.0301    1.2144    0.8481 H   0  0  0  0  0  0  0  0  0  0  0  0
   -3.2288   -1.7979    0.4077 H   0  0  0  0  0  0  0  0  0  0  0  0
   -2.5785   -0.0147    2.7910 H   0  0  0  0  0  0  0  0  0  0  0  0
   -4.8505   -0.6863    2.0912 H   0  0  0  0  0  0  0  0  0  0  0  0
   -1.5598   -1.8326    3.6559 H   0  0  0  0  0  0  0  0  0  0  0  0
   -3.6368   -3.0227    3.2028 H   0  0  0  0  0  0  0  0  0  0  0  0
   -1.4166   -2.9044    0.8426 H   0  0  0  0  0  0  0  0  0  0  0  0
    0.5199   -3.6956    3.1300 H   0  0  0  0  0  0  0  0  0  0  0  0
    1.3588   -3.9111    1.5559 H   0  0  0  0  0  0  0  0  0  0  0  0
    2.5054   -3.0419    3.7218 H   0  0  0  0  0  0  0  0  0  0  0  0
    0.8782   -1.3018    4.0056 H   0  0  0  0  0  0  0  0  0  0  0  0
    3.7019   -0.7357    3.7703 H   0  0  0  0  0  0  0  0  0  0  0  0
    1.8484   -0.2355    5.4393 H   0  0  0  0  0  0  0  0  0  0  0  0
    1.6249    1.1347    4.5154 H   0  0  0  0  0  0  0  0  0  0  0  0
    2.1929    1.5852    2.6983 H   0  0  0  0  0  0  0  0  0  0  0  0
    3.9440   -0.0780    1.0003 H   0  0  0  0  0  0  0  0  0  0  0  0
    2.7799    1.1941    0.5524 H   0  0  0  0  0  0  0  0  0  0  0  0
    2.3270   -1.5637    0.4913 H   0  0  0  0  0  0  0  0  0  0  0  0
    0.2897   -0.0361    2.0067 H   0  0  0  0  0  0  0  0  0  0  0  0
  1  2  1  0
  1  3  1  0
  1  4  1  0
  1  8  1  0
  5  6  1  0
  5  7  1  0
  5  8  1  0
  5 12  1  0
  9 10  1  0
  9 11  1  0
  9 12  1  0
  9 13  1  0
 13 14  1  0
 14 15  1  0
 15 16  1  0
 15 17  1  0
 16 21  1  0
 17 18  1  0
 17 19  1  0
 19 20  1  0
 19 21  1  0
 21 22  1  0
 22 23  1  0
 22 31  1  0
 23 24  1  0
 24 25  1  0
 25 26  1  0
 25 31  1  0
 26 27  1  0
 26 28  1  0
 28 29  1  0
 29 30  1  0
 30 31  1  0
  1 32  1  0
  2 33  1  0
  3 34  1  0
  4 35  1  0
  5 36  1  0
  6 37  1  0
  7 38  1  0
  9 39  1  0
 10 40  1  0
 11 41  1  0
 14 42  1  0
 14 43  1  0
 15 44  1  6
 17 45  1  1
 18 46  1  0
 19 47  1  1
 20 48  1  0
 21 49  1  6
 23 50  1  0
 23 51  1  0
 24 52  1  0
 25 53  1  0
 26 54  1  1
 27 55  1  0
 27 56  1  0
 28 57  1  0
 29 58  1  0
 29 59  1  0
 30 60  1  0
 31 61  1  0
M  END
$$$$
ADENYLATE KINASE
     RDKit          3D

 61 63  0  0  0  0  0  0  0  0999 V2000
   -2.1124    4.0228    3.5457 P   0  0  0  0  0  0  0  0  0  0  0  0
   -2.6822    4.3669    1.9902 O   0  0  0  0  0  0  0  0  0  0  0  0
   -2.9747    4.3561    4.9600 O   0  0  0  0  0  0  0  0  0  0  0  0
   -0.5053    3.8848    3.9975 O   0  0  0  0  0  0  0  0  0  0  0  0
   -2.0271    1.5276    4.6713 P   0  0  0  0  0  0  0  0  0  0  0  0
   -1.1655    0.5425    5.7023 O   0  0  0  0  0  0  0  0  0  0  0  0
   -3.6403    1.0454    4.7734 O   0  0  0  0  0  0  0  0  0  0  0  0
   -1.9324    3.1679    4.9761 O   0  0  0  0  0  0  0  0  0  0  0  0
   -1.2494   -0.5922    3.2279 P   0  0  0  0  0  0  0  0  0  0  0  0
   -1.8821   -1.8568    2.3172 O   0  0  0  0  0  0  0  0  0  0  0  0
   -0.2173   -1.4157    4.3064 O   0  0  0  0  0  0  0  0  0  0  0  0
   -2.4602   -0.0650    4.2729 O   0  0  0  0  0  0  0  0  0  0  0  0
   -0.3280   -0.4233    1.8416 O   0  0  0  0  0  0  0  0  0  0  0  0
   -0.6502    0.6961    1.0774 C   0  0  0  0  0  0  0  0  0  0  0  0
    0.2394    0.7491   -0.1433 C   0  0  1  0  0  0  0  0  0  0  0  0
    0.1291   -0.3424   -0.9638 O   0  0  0  0  0  0  0  0  0  0  0  0
   -0.1560    1.9717   -0.9537 C   0  0  1  0  0  0  0  0  0  0  0  0
    0.9371    2.7957   -1.2165 O   0  0  0  0  0  0  0  0  0  0  0  0
   -0.5177    1.3146   -2.2886 C   0  0  1  0  0  0  0  0  0  0  0  0
   -0.2879    2.1699   -3.3530 O   0  0  0  0  0  0  0  0  0  0  0  0
    0.4375    0.1412   -2.2430 C   0  0  2  0  0  0  0  0  0  0  0  0
    0.1451   -0.8056   -3.2885 N   0  0  0  0  0  0  0  0  0  0  0  0
   -1.1642   -1.3580   -3.2184 C   0  0  0  0  0  0  0  0  0  0  0  0
   -1.0714   -2.7736   -3.4967 N   0  0  0  0  0  0  0  0  0  0  0  0
    0.3187   -3.1133   -3.6544 C   0  0  0  0  0  0  0  0  0  0  0  0
    0.6482   -4.2104   -2.6755 C   0  0  2  0  0  0  0  0  0  0  0  0
   -0.2132   -4.0439   -1.5200 N   0  0  0  0  0  0  0  0  0  0  0  0
    2.0232   -4.3095   -2.3121 N   0  0  0  0  0  0  0  0  0  0  0  0
    2.8248   -3.1636   -2.6142 C   0  0  0  0  0  0  0  0  0  0  0  0
    2.0090   -1.9828   -2.2848 N   0  0  0  0  0  0  0  0  0  0  0  0
    1.1018   -1.8520   -3.3998 C   0  0  0  0  0  0  0  0  0  0  0  0
   -1.4899    5.2788    3.5637 H   0  0  0  0  0  0  0  0  0  0  0  0
   -3.2023    3.5717    1.7045 H   0  0  0  0  0  0  0  0  0  0  0  0
   -3.5803    5.1505    4.8473 H   0  0  0  0  0  0  0  0  0  0  0  0
    0.0210    3.3848    3.3191 H   0  0  0  0  0  0  0  0  0  0  0  0
   -2.4507    1.5556    6.0254 H   0  0  0  0  0  0  0  0  0  0  0  0
   -0.1827    0.6462    5.4951 H   0  0  0  0  0  0  0  0  0  0  0  0
   -4.2533    1.7508    4.4183 H   0  0  0  0  0  0  0  0  0  0  0  0
   -0.2890   -1.4716    2.7702 H   0  0  0  0  0  0  0  0  0  0  0  0
   -2.7301   -2.1454    2.7186 H   0  0  0  0  0  0  0  0  0  0  0  0
   -0.6804   -1.6762    5.1511 H   0  0  0  0  0  0  0  0  0  0  0  0
   -0.3876    1.5745    1.7040 H   0  0  0  0  0  0  0  0  0  0  0  0
   -1.7223    0.7449    0.8116 H   0  0  0  0  0  0  0  0  0  0  0  0
    1.2866    0.8599    0.2101 H   0  0  0  0  0  0  0  0  0  0  0  0
   -1.0096    2.4955   -0.5112 H   0  0  0  0  0  0  0  0  0  0  0  0
    1.3985    2.5373   -2.0529 H   0  0  0  0  0  0  0  0  0  0  0  0
   -1.5330    0.9247   -2.2303 H   0  0  0  0  0  0  0  0  0  0  0  0
   -0.5919    1.6692   -4.1566 H   0  0  0  0  0  0  0  0  0  0  0  0
    1.4981    0.4171   -2.2489 H   0  0  0  0  0  0  0  0  0  0  0  0
   -1.6973   -1.1529   -2.2634 H   0  0  0  0  0  0  0  0  0  0  0  0
   -1.7848   -0.9083   -4.0244 H   0  0  0  0  0  0  0  0  0  0  0  0
   -1.5706   -3.0437   -4.3743 H   0  0  0  0  0  0  0  0  0  0  0  0
    0.5637   -3.4858   -4.6739 H   0  0  0  0  0  0  0  0  0  0  0  0
    0.3498   -5.1755   -3.1652 H   0  0  0  0  0  0  0  0  0  0  0  0
   -1.1792   -4.3969   -1.7685 H   0  0  0  0  0  0  0  0  0  0  0  0
    0.0883   -4.5572   -0.6804 H   0  0  0  0  0  0  0  0  0  0  0  0
    2.0524   -4.4466   -1.2569 H   0  0  0  0  0  0  0  0  0  0  0  0
    3.0100   -3.1493   -3.7137 H   0  0  0  0  0  0  0  0  0  0  0  0
    3.7514   -3.1836   -2.0270 H   0  0  0  0  0  0  0  0  0  0  0  0
    1.4423   -2.2211   -1.4159 H   0  0  0  0  0  0  0  0  0  0  0  0
    1.7484   -1.6079   -4.2829 H   0  0  0  0  0  0  0  0  0  0  0  0
  1  2  1  0
  1  3  1  0
  1  4  1  0
  1  8  1  0
  5  6  1  0
  5  7  1  0
  5  8  1  0
  5 12  1  0
  9 10  1  0
  9 11  1  0
  9 12  1  0
  9 13  1  0
 13 14  1  0
 14 15  1  0
 15 16  1  0
 15 17  1  0
 16 21  1  0
 17 18  1  0
 17 19  1  0
 19 20  1  0
 19 21  1  0
 21 22  1  0
 22 23  1  0
 22 31  1  0
 23 24  1  0
 24 25  1  0
 25 26  1  0
 25 31  1  0
 26 27  1  0
 26 28  1  0
 28 29  1  0
 29 30  1  0
 30 31  1  0
  1 32  1  0
  2 33  1  0
  3 34  1  0
  4 35  1  0
  5 36  1  0
  6 37  1  0
  7 38  1  0
  9 39  1  0
 10 40  1  0
 11 41  1  0
 14 42  1  0
 14 43  1  0
 15 44  1  1
 17 45  1  1
 18 46  1  0
 19 47  1  1
 20 48  1  0
 21 49  1  1
 23 50  1  0
 23 51  1  0
 24 52  1  0
 25 53  1  0
 26 54  1  6
 27 55  1  0
 27 56  1  0
 28 57  1  0
 29 58  1  0
 29 59  1  0
 30 60  1  0
 31 61  1  0
M  END
$$$$
ADENYLATE KINASE
     RDKit          3D

 61 63  0  0  0  0  0  0  0  0999 V2000
    2.9981    3.8218   -1.5673 P   0  0  0  0  0  0  0  0  0  0  0  0
    3.7661    4.9409   -2.5738 O   0  0  0  0  0  0  0  0  0  0  0  0
    2.5243    4.6616   -0.1648 O   0  0  0  0  0  0  0  0  0  0  0  0
    1.7131    4.4977   -2.4418 O   0  0  0  0  0  0  0  0  0  0  0  0
    3.4316    1.4727   -0.2310 P   0  0  0  0  0  0  0  0  0  0  0  0
    2.3496    1.1874   -1.5059 O   0  0  0  0  0  0  0  0  0  0  0  0
    3.6185    2.2921    1.2489 O   0  0  0  0  0  0  0  0  0  0  0  0
    3.9709    2.4453   -1.4944 O   0  0  0  0  0  0  0  0  0  0  0  0
    2.0818   -0.8354    0.2935 P   0  0  0  0  0  0  0  0  0  0  0  0
    2.5073   -1.0822    1.9201 O   0  0  0  0  0  0  0  0  0  0  0  0
    2.1271   -2.3311   -0.4958 O   0  0  0  0  0  0  0  0  0  0  0  0
    3.4559   -0.2072   -0.4666 O   0  0  0  0  0  0  0  0  0  0  0  0
    0.7006    0.1236    0.1787 O   0  0  0  0  0  0  0  0  0  0  0  0
   -0.0172    0.0461    1.3477 C   0  0  0  0  0  0  0  0  0  0  0  0
   -1.2641    0.8898    1.2974 C   0  0  1  0  0  0  0  0  0  0  0  0
   -2.1451    0.5464    0.3021 O   0  0  0  0  0  0  0  0  0  0  0  0
   -2.0885    0.6023    2.5454 C   0  0  1  0  0  0  0  0  0  0  0  0
   -3.0803    1.5632    2.6269 O   0  0  0  0  0  0  0  0  0  0  0  0
   -2.7394   -0.7197    2.1621 C   0  0  1  0  0  0  0  0  0  0  0  0
   -4.0180   -0.7194    2.6707 O   0  0  0  0  0  0  0  0  0  0  0  0
   -2.8037   -0.5985    0.6700 C   0  0  2  0  0  0  0  0  0  0  0  0
   -2.1968   -1.7135   -0.0341 N   0  0  0  0  0  0  0  0  0  0  0  0
   -2.8387   -2.9562    0.2932 C   0  0  0  0  0  0  0  0  0  0  0  0
   -2.9524   -3.7083   -0.9610 N   0  0  0  0  0  0  0  0  0  0  0  0
   -2.1507   -2.9654   -1.9127 C   0  0  0  0  0  0  0  0  0  0  0  0
   -2.6620   -3.0119   -3.3180 C   0  0  2  0  0  0  0  0  0  0  0  0
   -2.6261   -4.3303   -3.8998 N   0  0  0  0  0  0  0  0  0  0  0  0
   -1.8926   -2.0416   -4.0814 N   0  0  0  0  0  0  0  0  0  0  0  0
   -0.9493   -1.3171   -3.2720 C   0  0  0  0  0  0  0  0  0  0  0  0
   -1.5345   -0.6789   -2.1210 N   0  0  0  0  0  0  0  0  0  0  0  0
   -2.4452   -1.5503   -1.4280 C   0  0  0  0  0  0  0  0  0  0  0  0
    3.0119    2.8258   -2.5481 H   0  0  0  0  0  0  0  0  0  0  0  0
    4.4978    5.4382   -2.1255 H   0  0  0  0  0  0  0  0  0  0  0  0
    1.9754    4.0322    0.3535 H   0  0  0  0  0  0  0  0  0  0  0  0
    0.9049    3.9754   -2.2111 H   0  0  0  0  0  0  0  0  0  0  0  0
    4.3892    0.5335   -0.6574 H   0  0  0  0  0  0  0  0  0  0  0  0
    1.5123    1.7344   -1.4191 H   0  0  0  0  0  0  0  0  0  0  0  0
    2.8730    1.9739    1.8321 H   0  0  0  0  0  0  0  0  0  0  0  0
    1.5154   -1.0359   -0.9539 H   0  0  0  0  0  0  0  0  0  0  0  0
    2.5024   -2.0713    2.0293 H   0  0  0  0  0  0  0  0  0  0  0  0
    2.2352   -3.0830    0.1563 H   0  0  0  0  0  0  0  0  0  0  0  0
    0.6032    0.4475    2.1786 H   0  0  0  0  0  0  0  0  0  0  0  0
   -0.3364   -0.9904    1.6127 H   0  0  0  0  0  0  0  0  0  0  0  0
   -1.0239    1.9614    1.2077 H   0  0  0  0  0  0  0  0  0  0  0  0
   -1.4793    0.5425    3.4547 H   0  0  0  0  0  0  0  0  0  0  0  0
   -2.7607    2.4179    2.9920 H   0  0  0  0  0  0  0  0  0  0  0  0
   -2.1330   -1.5817    2.4672 H   0  0  0  0  0  0  0  0  0  0  0  0
   -4.0779   -0.4733    3.6199 H   0  0  0  0  0  0  0  0  0  0  0  0
   -3.8604   -0.5525    0.2986 H   0  0  0  0  0  0  0  0  0  0  0  0
   -2.2815   -3.5726    1.0224 H   0  0  0  0  0  0  0  0  0  0  0  0
   -3.8488   -2.7736    0.7431 H   0  0  0  0  0  0  0  0  0  0  0  0
   -3.9412   -3.5858   -1.2767 H   0  0  0  0  0  0  0  0  0  0  0  0
   -1.0950   -3.2343   -1.7986 H   0  0  0  0  0  0  0  0  0  0  0  0
   -3.7054   -2.6009   -3.2887 H   0  0  0  0  0  0  0  0  0  0  0  0
   -2.0352   -4.3357   -4.7560 H   0  0  0  0  0  0  0  0  0  0  0  0
   -3.6010   -4.5625   -4.2150 H   0  0  0  0  0  0  0  0  0  0  0  0
   -1.3570   -2.5564   -4.8029 H   0  0  0  0  0  0  0  0  0  0  0  0
   -0.5507   -0.5017   -3.9221 H   0  0  0  0  0  0  0  0  0  0  0  0
   -0.0713   -1.9044   -2.9620 H   0  0  0  0  0  0  0  0  0  0  0  0
   -2.0767    0.1811   -2.3987 H   0  0  0  0  0  0  0  0  0  0  0  0
   -3.5148   -1.3465   -1.6230 H   0  0  0  0  0  0  0  0  0  0  0  0
  1  2  1  0
  1  3  1  0
  1  4  1  0
  1  8  1  0
  5  6  1  0
  5  7  1  0
  5  8  1  0
  5 12  1  0
  9 10  1  0
  9 11  1  0
  9 12  1  0
  9 13  1  0
 13 14  1  0
 14 15  1  0
 15 16  1  0
 15 17  1  0
 16 21  1  0
 17 18  1  0
 17 19  1  0
 19 20  1  0
 19 21  1  0
 21 22  1  0
 22 23  1  0
 22 31  1  0
 23 24  1  0
 24 25  1  0
 25 26  1  0
 25 31  1  0
 26 27  1  0
 26 28  1  0
 28 29  1  0
 29 30  1  0
 30 31  1  0
  1 32  1  0
  2 33  1  0
  3 34  1  0
  4 35  1  0
  5 36  1  0
  6 37  1  0
  7 38  1  0
  9 39  1  0
 10 40  1  0
 11 41  1  0
 14 42  1  0
 14 43  1  0
 15 44  1  6
 17 45  1  1
 18 46  1  0
 19 47  1  6
 20 48  1  0
 21 49  1  6
 23 50  1  0
 23 51  1  0
 24 52  1  0
 25 53  1  0
 26 54  1  1
 27 55  1  0
 27 56  1  0
 28 57  1  0
 29 58  1  0
 29 59  1  0
 30 60  1  0
 31 61  1  0
M  END
$$$$
ADENYLATE KINASE
     RDKit          3D

 61 63  0  0  0  0  0  0  0  0999 V2000
   -2.5234   -0.6292   -2.7123 P   0  0  0  0  0  0  0  0  0  0  0  0
   -3.3267   -0.9985   -1.2754 O   0  0  0  0  0  0  0  0  0  0  0  0
   -3.3847   -1.5609   -3.8535 O   0  0  0  0  0  0  0  0  0  0  0  0
   -2.8846    0.8206   -1.9649 O   0  0  0  0  0  0  0  0  0  0  0  0
   -0.6532   -2.2539   -3.7577 P   0  0  0  0  0  0  0  0  0  0  0  0
    0.4406   -3.4618   -4.0529 O   0  0  0  0  0  0  0  0  0  0  0  0
   -1.3016   -3.5380   -2.8708 O   0  0  0  0  0  0  0  0  0  0  0  0
   -1.0259   -1.3410   -2.3592 O   0  0  0  0  0  0  0  0  0  0  0  0
    1.7476   -1.1901   -4.5989 P   0  0  0  0  0  0  0  0  0  0  0  0
    3.0816   -1.9474   -5.3493 O   0  0  0  0  0  0  0  0  0  0  0  0
    1.9060    0.4089   -5.1689 O   0  0  0  0  0  0  0  0  0  0  0  0
    0.2638   -1.8042   -5.0911 O   0  0  0  0  0  0  0  0  0  0  0  0
    2.1029   -0.0786   -3.3728 O   0  0  0  0  0  0  0  0  0  0  0  0
    2.5885   -0.7689   -2.2678 C   0  0  0  0  0  0  0  0  0  0  0  0
    3.0712    0.1543   -1.1729 C   0  0  1  0  0  0  0  0  0  0  0  0
    1.9951    0.9358   -0.7767 O   0  0  0  0  0  0  0  0  0  0  0  0
    3.5284   -0.6663   -0.0180 C   0  0  1  0  0  0  0  0  0  0  0  0
    4.7951   -0.3173    0.4418 O   0  0  0  0  0  0  0  0  0  0  0  0
    2.5149   -0.3339    1.0591 C   0  0  1  0  0  0  0  0  0  0  0  0
    3.0872   -0.3263    2.3285 O   0  0  0  0  0  0  0  0  0  0  0  0
    2.0724    1.0392    0.6066 C   0  0  2  0  0  0  0  0  0  0  0  0
    0.9274    1.5499    1.2584 N   0  0  0  0  0  0  0  0  0  0  0  0
    0.5271    2.8640    0.7967 C   0  0  0  0  0  0  0  0  0  0  0  0
   -0.9397    2.9019    0.8729 N   0  0  0  0  0  0  0  0  0  0  0  0
   -1.2282    1.8381    1.7770 C   0  0  0  0  0  0  0  0  0  0  0  0
   -2.5904    1.2550    1.7267 C   0  0  2  0  0  0  0  0  0  0  0  0
   -3.6486    2.2119    1.9199 N   0  0  0  0  0  0  0  0  0  0  0  0
   -2.6238    0.2123    2.7651 N   0  0  0  0  0  0  0  0  0  0  0  0
   -1.2890   -0.1453    3.1906 C   0  0  0  0  0  0  0  0  0  0  0  0
   -0.3600   -0.3349    2.0933 N   0  0  0  0  0  0  0  0  0  0  0  0
   -0.2651    0.7813    1.2059 C   0  0  0  0  0  0  0  0  0  0  0  0
   -1.7555   -1.0904   -1.6461 H   0  0  0  0  0  0  0  0  0  0  0  0
   -4.1135   -1.5875   -1.3988 H   0  0  0  0  0  0  0  0  0  0  0  0
   -2.9156   -1.4335   -4.6987 H   0  0  0  0  0  0  0  0  0  0  0  0
   -2.6610    1.5779   -2.5302 H   0  0  0  0  0  0  0  0  0  0  0  0
   -0.5521   -2.2480   -2.3350 H   0  0  0  0  0  0  0  0  0  0  0  0
    1.1969   -3.5457   -3.4476 H   0  0  0  0  0  0  0  0  0  0  0  0
   -2.1107   -3.8288   -3.3944 H   0  0  0  0  0  0  0  0  0  0  0  0
    1.4252   -2.3272   -5.3859 H   0  0  0  0  0  0  0  0  0  0  0  0
    3.7257   -1.2988   -5.7192 H   0  0  0  0  0  0  0  0  0  0  0  0
    1.5405    0.5280   -6.0683 H   0  0  0  0  0  0  0  0  0  0  0  0
    3.4250   -1.4744   -2.5397 H   0  0  0  0  0  0  0  0  0  0  0  0
    1.7829   -1.4192   -1.8602 H   0  0  0  0  0  0  0  0  0  0  0  0
    3.9269    0.7583   -1.5367 H   0  0  0  0  0  0  0  0  0  0  0  0
    3.4938   -1.7569   -0.2519 H   0  0  0  0  0  0  0  0  0  0  0  0
    5.4790   -0.3814   -0.2634 H   0  0  0  0  0  0  0  0  0  0  0  0
    1.6299   -1.0089    0.9913 H   0  0  0  0  0  0  0  0  0  0  0  0
    2.4559   -0.7300    2.9601 H   0  0  0  0  0  0  0  0  0  0  0  0
    2.9365    1.7234    0.8510 H   0  0  0  0  0  0  0  0  0  0  0  0
    0.8590    2.9855   -0.2513 H   0  0  0  0  0  0  0  0  0  0  0  0
    0.9692    3.6146    1.4829 H   0  0  0  0  0  0  0  0  0  0  0  0
   -1.2948    2.6207   -0.0724 H   0  0  0  0  0  0  0  0  0  0  0  0
   -0.9033    2.1609    2.7816 H   0  0  0  0  0  0  0  0  0  0  0  0
   -2.6995    0.7157    0.7769 H   0  0  0  0  0  0  0  0  0  0  0  0
   -3.6739    2.8287    1.0826 H   0  0  0  0  0  0  0  0  0  0  0  0
   -4.5556    1.7506    2.0390 H   0  0  0  0  0  0  0  0  0  0  0  0
   -3.0475    0.6935    3.6129 H   0  0  0  0  0  0  0  0  0  0  0  0
   -0.9005    0.4991    4.0020 H   0  0  0  0  0  0  0  0  0  0  0  0
   -1.3859   -1.1579    3.6722 H   0  0  0  0  0  0  0  0  0  0  0  0
   -0.7552   -1.1426    1.5412 H   0  0  0  0  0  0  0  0  0  0  0  0
   -0.6379    0.5704    0.1895 H   0  0  0  0  0  0  0  0  0  0  0  0
  1  2  1  0
  1  3  1  0
  1  4  1  0
  1  8  1  0
  5  6  1  0
  5  7  1  0
  5  8  1  0
  5 12  1  0
  9 10  1  0
  9 11  1  0
  9 12  1  0
  9 13  1  0
 13 14  1  0
 14 15  1  0
 15 16  1  0
 15 17  1  0
 16 21  1  0
 17 18  1  0
 17 19  1  0
 19 20  1  0
 19 21  1  0
 21 22  1  0
 22 23  1  0
 22 31  1  0
 23 24  1  0
 24 25  1  0
 25 26  1  0
 25 31  1  0
 26 27  1  0
 26 28  1  0
 28 29  1  0
 29 30  1  0
 30 31  1  0
  1 32  1  0
  2 33  1  0
  3 34  1  0
  4 35  1  0
  5 36  1  0
  6 37  1  0
  7 38  1  0
  9 39  1  0
 10 40  1  0
 11 41  1  0
 14 42  1  0
 14 43  1  0
 15 44  1  6
 17 45  1  6
 18 46  1  0
 19 47  1  1
 20 48  1  0
 21 49  1  6
 23 50  1  0
 23 51  1  0
 24 52  1  0
 25 53  1  0
 26 54  1  6
 27 55  1  0
 27 56  1  0
 28 57  1  0
 29 58  1  0
 29 59  1  0
 30 60  1  0
 31 61  1  0
M  END
$$$$
ADENYLATE KINASE
     RDKit          3D

 61 63  0  0  0  0  0  0  0  0999 V2000
    0.8895   -0.2035   -5.2921 P   0  0  0  0  0  0  0  0  0  0  0  0
    0.8686    0.7985   -6.6646 O   0  0  0  0  0  0  0  0  0  0  0  0
    2.2242    0.2100   -4.3485 O   0  0  0  0  0  0  0  0  0  0  0  0
    0.0622   -1.6266   -5.7199 O   0  0  0  0  0  0  0  0  0  0  0  0
   -0.6208    1.9143   -4.3056 P   0  0  0  0  0  0  0  0  0  0  0  0
   -1.5218    1.4329   -5.6670 O   0  0  0  0  0  0  0  0  0  0  0  0
   -0.4830    3.4105   -5.1202 O   0  0  0  0  0  0  0  0  0  0  0  0
    0.7937    1.4657   -5.1322 O   0  0  0  0  0  0  0  0  0  0  0  0
   -2.1581    0.9942   -2.2370 P   0  0  0  0  0  0  0  0  0  0  0  0
   -1.2513   -0.3150   -2.8037 O   0  0  0  0  0  0  0  0  0  0  0  0
   -3.7162    0.8317   -2.8558 O   0  0  0  0  0  0  0  0  0  0  0  0
   -1.3668    2.3562   -2.8758 O   0  0  0  0  0  0  0  0  0  0  0  0
   -2.5100    1.1937   -0.6204 O   0  0  0  0  0  0  0  0  0  0  0  0
   -1.4808    1.7824    0.1171 C   0  0  0  0  0  0  0  0  0  0  0  0
   -1.9058    1.9158    1.5670 C   0  0  1  0  0  0  0  0  0  0  0  0
   -2.1977    0.7117    2.1487 O   0  0  0  0  0  0  0  0  0  0  0  0
   -0.7399    2.5056    2.3323 C   0  0  1  0  0  0  0  0  0  0  0  0
   -0.8012    3.9002    2.3766 O   0  0  0  0  0  0  0  0  0  0  0  0
   -0.9308    1.9133    3.6903 C   0  0  1  0  0  0  0  0  0  0  0  0
   -1.7285    2.8073    4.4326 O   0  0  0  0  0  0  0  0  0  0  0  0
   -1.6660    0.6379    3.4070 C   0  0  2  0  0  0  0  0  0  0  0  0
   -0.9336   -0.5579    3.6940 N   0  0  0  0  0  0  0  0  0  0  0  0
   -1.7066   -1.7417    3.3958 C   0  0  0  0  0  0  0  0  0  0  0  0
   -0.9383   -2.5330    2.4352 N   0  0  0  0  0  0  0  0  0  0  0  0
   -0.1785   -1.5018    1.7583 C   0  0  0  0  0  0  0  0  0  0  0  0
    1.0359   -1.9810    1.0432 C   0  0  2  0  0  0  0  0  0  0  0  0
    1.2143   -3.4019    0.9988 N   0  0  0  0  0  0  0  0  0  0  0  0
    2.1861   -1.2690    1.5933 N   0  0  0  0  0  0  0  0  0  0  0  0
    2.4281   -1.6143    2.9745 C   0  0  0  0  0  0  0  0  0  0  0  0
    1.1609   -1.6552    3.7066 N   0  0  0  0  0  0  0  0  0  0  0  0
    0.2891   -0.7273    2.9964 C   0  0  0  0  0  0  0  0  0  0  0  0
    2.1710   -0.4612   -5.7720 H   0  0  0  0  0  0  0  0  0  0  0  0
    0.5031    0.2596   -7.4359 H   0  0  0  0  0  0  0  0  0  0  0  0
    2.0173    0.0293   -3.3980 H   0  0  0  0  0  0  0  0  0  0  0  0
   -0.6343   -1.7851   -5.0443 H   0  0  0  0  0  0  0  0  0  0  0  0
    0.2501    1.4666   -3.3159 H   0  0  0  0  0  0  0  0  0  0  0  0
   -1.9021    0.5453   -5.5500 H   0  0  0  0  0  0  0  0  0  0  0  0
    0.2525    3.9240   -4.6842 H   0  0  0  0  0  0  0  0  0  0  0  0
   -3.2938    1.5214   -1.6167 H   0  0  0  0  0  0  0  0  0  0  0  0
   -1.4366   -1.0577   -2.1741 H   0  0  0  0  0  0  0  0  0  0  0  0
   -3.7685    0.1045   -3.5437 H   0  0  0  0  0  0  0  0  0  0  0  0
   -1.3064    2.7855   -0.2965 H   0  0  0  0  0  0  0  0  0  0  0  0
   -0.5715    1.1954   -0.0087 H   0  0  0  0  0  0  0  0  0  0  0  0
   -2.7661    2.6419    1.5505 H   0  0  0  0  0  0  0  0  0  0  0  0
    0.2137    2.2616    1.8379 H   0  0  0  0  0  0  0  0  0  0  0  0
   -0.4126    4.2168    3.2516 H   0  0  0  0  0  0  0  0  0  0  0  0
   -0.0142    1.7859    4.2715 H   0  0  0  0  0  0  0  0  0  0  0  0
   -2.5608    3.0425    3.9672 H   0  0  0  0  0  0  0  0  0  0  0  0
   -2.5511    0.6138    4.1096 H   0  0  0  0  0  0  0  0  0  0  0  0
   -2.7279   -1.5589    3.0604 H   0  0  0  0  0  0  0  0  0  0  0  0
   -1.7574   -2.3845    4.3168 H   0  0  0  0  0  0  0  0  0  0  0  0
   -1.5467   -3.0916    1.8190 H   0  0  0  0  0  0  0  0  0  0  0  0
   -0.8860   -0.9433    1.1455 H   0  0  0  0  0  0  0  0  0  0  0  0
    0.9564   -1.5924   -0.0124 H   0  0  0  0  0  0  0  0  0  0  0  0
    0.9993   -3.7660    0.0423 H   0  0  0  0  0  0  0  0  0  0  0  0
    2.2400   -3.5766    1.1407 H   0  0  0  0  0  0  0  0  0  0  0  0
    3.0426   -1.3780    1.0372 H   0  0  0  0  0  0  0  0  0  0  0  0
    2.9949   -0.7817    3.4468 H   0  0  0  0  0  0  0  0  0  0  0  0
    3.0332   -2.5177    3.1126 H   0  0  0  0  0  0  0  0  0  0  0  0
    0.7678   -2.6054    3.6519 H   0  0  0  0  0  0  0  0  0  0  0  0
    0.8760    0.1443    2.7546 H   0  0  0  0  0  0  0  0  0  0  0  0
  1  2  1  0
  1  3  1  0
  1  4  1  0
  1  8  1  0
  5  6  1  0
  5  7  1  0
  5  8  1  0
  5 12  1  0
  9 10  1  0
  9 11  1  0
  9 12  1  0
  9 13  1  0
 13 14  1  0
 14 15  1  0
 15 16  1  0
 15 17  1  0
 16 21  1  0
 17 18  1  0
 17 19  1  0
 19 20  1  0
 19 21  1  0
 21 22  1  0
 22 23  1  0
 22 31  1  0
 23 24  1  0
 24 25  1  0
 25 26  1  0
 25 31  1  0
 26 27  1  0
 26 28  1  0
 28 29  1  0
 29 30  1  0
 30 31  1  0
  1 32  1  0
  2 33  1  0
  3 34  1  0
  4 35  1  0
  5 36  1  0
  6 37  1  0
  7 38  1  0
  9 39  1  0
 10 40  1  0
 11 41  1  0
 14 42  1  0
 14 43  1  0
 15 44  1  6
 17 45  1  6
 18 46  1  0
 19 47  1  1
 20 48  1  0
 21 49  1  1
 23 50  1  0
 23 51  1  0
 24 52  1  0
 25 53  1  0
 26 54  1  6
 27 55  1  0
 27 56  1  0
 28 57  1  0
 29 58  1  0
 29 59  1  0
 30 60  1  0
 31 61  1  0
M  END
$$$$
ADENYLATE KINASE
     RDKit          3D

 61 63  0  0  0  0  0  0  0  0999 V2000
    3.8115    1.8601   -0.6832 P   0  0  0  0  0  0  0  0  0  0  0  0
    4.2907    0.5671    0.2885 O   0  0  0  0  0  0  0  0  0  0  0  0
    2.6034    2.6922    0.1889 O   0  0  0  0  0  0  0  0  0  0  0  0
    4.5942    3.2681   -0.2003 O   0  0  0  0  0  0  0  0  0  0  0  0
    3.9104    0.6139   -3.0874 P   0  0  0  0  0  0  0  0  0  0  0  0
    5.0271   -0.6541   -3.1390 O   0  0  0  0  0  0  0  0  0  0  0  0
    4.7381    2.0410   -3.4683 O   0  0  0  0  0  0  0  0  0  0  0  0
    4.1690    0.4069   -1.4299 O   0  0  0  0  0  0  0  0  0  0  0  0
    1.5393   -0.4321   -4.0377 P   0  0  0  0  0  0  0  0  0  0  0  0
    1.4041   -1.6438   -5.2073 O   0  0  0  0  0  0  0  0  0  0  0  0
    1.6848    0.9838   -4.9610 O   0  0  0  0  0  0  0  0  0  0  0  0
    3.1923   -0.7637   -3.7535 O   0  0  0  0  0  0  0  0  0  0  0  0
   -0.0446   -0.0753   -3.5679 O   0  0  0  0  0  0  0  0  0  0  0  0
   -0.4401   -0.7028   -2.4111 C   0  0  0  0  0  0  0  0  0  0  0  0
   -1.8845   -0.3311   -2.0496 C   0  0  1  0  0  0  0  0  0  0  0  0
   -2.1969   -0.9942   -0.8932 O   0  0  0  0  0  0  0  0  0  0  0  0
   -1.8633    1.1533   -1.7275 C   0  0  1  0  0  0  0  0  0  0  0  0
   -3.0714    1.7641   -1.9670 O   0  0  0  0  0  0  0  0  0  0  0  0
   -1.5488    1.0654   -0.2256 C   0  0  1  0  0  0  0  0  0  0  0  0
   -1.9808    2.2520    0.3632 O   0  0  0  0  0  0  0  0  0  0  0  0
   -2.3743   -0.1097    0.1378 C   0  0  2  0  0  0  0  0  0  0  0  0
   -2.0895   -0.7435    1.3624 N   0  0  0  0  0  0  0  0  0  0  0  0
   -2.9500   -1.8830    1.6301 C   0  0  0  0  0  0  0  0  0  0  0  0
   -2.9372   -2.0819    3.0827 N   0  0  0  0  0  0  0  0  0  0  0  0
   -1.9293   -1.1279    3.5718 C   0  0  0  0  0  0  0  0  0  0  0  0
   -0.5815   -1.7667    3.2874 C   0  0  2  0  0  0  0  0  0  0  0  0
    0.1514   -2.0617    4.4809 N   0  0  0  0  0  0  0  0  0  0  0  0
    0.2188   -0.8700    2.4390 N   0  0  0  0  0  0  0  0  0  0  0  0
    0.1251    0.4450    3.0433 C   0  0  0  0  0  0  0  0  0  0  0  0
   -1.1604    0.9892    2.7605 N   0  0  0  0  0  0  0  0  0  0  0  0
   -2.1894    0.0031    2.5639 C   0  0  0  0  0  0  0  0  0  0  0  0
    2.7723    2.5565   -1.3180 H   0  0  0  0  0  0  0  0  0  0  0  0
    3.8807    0.7108    1.1909 H   0  0  0  0  0  0  0  0  0  0  0  0
    2.5977    2.3191    1.1215 H   0  0  0  0  0  0  0  0  0  0  0  0
    5.1221    3.0498    0.6056 H   0  0  0  0  0  0  0  0  0  0  0  0
    3.2529    1.7811   -3.5397 H   0  0  0  0  0  0  0  0  0  0  0  0
    5.8332   -0.2887   -3.5921 H   0  0  0  0  0  0  0  0  0  0  0  0
    5.6701    1.7809   -3.7202 H   0  0  0  0  0  0  0  0  0  0  0  0
    1.3943   -1.7841   -3.7601 H   0  0  0  0  0  0  0  0  0  0  0  0
    1.1759   -1.2812   -6.1201 H   0  0  0  0  0  0  0  0  0  0  0  0
    1.0179    0.8670   -5.6967 H   0  0  0  0  0  0  0  0  0  0  0  0
    0.2078   -0.3303   -1.5916 H   0  0  0  0  0  0  0  0  0  0  0  0
   -0.3838   -1.8166   -2.4749 H   0  0  0  0  0  0  0  0  0  0  0  0
   -2.5887   -0.6082   -2.8364 H   0  0  0  0  0  0  0  0  0  0  0  0
   -1.0076    1.6441   -2.2439 H   0  0  0  0  0  0  0  0  0  0  0  0
   -2.9656    2.6187   -2.4936 H   0  0  0  0  0  0  0  0  0  0  0  0
   -0.4705    0.9518   -0.1567 H   0  0  0  0  0  0  0  0  0  0  0  0
   -1.2178    2.8897    0.3025 H   0  0  0  0  0  0  0  0  0  0  0  0
   -3.4490    0.2312    0.0943 H   0  0  0  0  0  0  0  0  0  0  0  0
   -2.6576   -2.7838    1.0768 H   0  0  0  0  0  0  0  0  0  0  0  0
   -4.0145   -1.6050    1.3864 H   0  0  0  0  0  0  0  0  0  0  0  0
   -3.8514   -1.9291    3.5273 H   0  0  0  0  0  0  0  0  0  0  0  0
   -2.0805   -0.8266    4.6053 H   0  0  0  0  0  0  0  0  0  0  0  0
   -0.6616   -2.7092    2.7010 H   0  0  0  0  0  0  0  0  0  0  0  0
    1.1431   -2.2509    4.2224 H   0  0  0  0  0  0  0  0  0  0  0  0
    0.1161   -1.3379    5.2072 H   0  0  0  0  0  0  0  0  0  0  0  0
    1.2126   -1.2199    2.4587 H   0  0  0  0  0  0  0  0  0  0  0  0
    0.2929    0.4002    4.1469 H   0  0  0  0  0  0  0  0  0  0  0  0
    0.8927    1.1132    2.5605 H   0  0  0  0  0  0  0  0  0  0  0  0
   -1.4903    1.7157    3.4300 H   0  0  0  0  0  0  0  0  0  0  0  0
   -3.2014    0.3767    2.7720 H   0  0  0  0  0  0  0  0  0  0  0  0
  1  2  1  0
  1  3  1  0
  1  4  1  0
  1  8  1  0
  5  6  1  0
  5  7  1  0
  5  8  1  0
  5 12  1  0
  9 10  1  0
  9 11  1  0
  9 12  1  0
  9 13  1  0
 13 14  1  0
 14 15  1  0
 15 16  1  0
 15 17  1  0
 16 21  1  0
 17 18  1  0
 17 19  1  0
 19 20  1  0
 19 21  1  0
 21 22  1  0
 22 23  1  0
 22 31  1  0
 23 24  1  0
 24 25  1  0
 25 26  1  0
 25 31  1  0
 26 27  1  0
 26 28  1  0
 28 29  1  0
 29 30  1  0
 30 31  1  0
  1 32  1  0
  2 33  1  0
  3 34  1  0
  4 35  1  0
  5 36  1  0
  6 37  1  0
  7 38  1  0
  9 39  1  0
 10 40  1  0
 11 41  1  0
 14 42  1  0
 14 43  1  0
 15 44  1  6
 17 45  1  6
 18 46  1  0
 19 47  1  6
 20 48  1  0
 21 49  1  1
 23 50  1  0
 23 51  1  0
 24 52  1  0
 25 53  1  0
 26 54  1  6
 27 55  1  0
 27 56  1  0
 28 57  1  0
 29 58  1  0
 29 59  1  0
 30 60  1  0
 31 61  1  0
M  END
$$$$
ADENYLATE KINASE
     RDKit          3D

 61 63  0  0  0  0  0  0  0  0999 V2000
    4.1802    2.5359    0.3269 P   0  0  0  0  0  0  0  0  0  0  0  0
    3.1861    3.7333    1.0248 O   0  0  0  0  0  0  0  0  0  0  0  0
    4.9163    1.4581    1.3657 O   0  0  0  0  0  0  0  0  0  0  0  0
    5.2822    3.2657   -0.7147 O   0  0  0  0  0  0  0  0  0  0  0  0
    3.6653    0.2680   -1.2193 P   0  0  0  0  0  0  0  0  0  0  0  0
    4.7010    0.2735   -2.5445 O   0  0  0  0  0  0  0  0  0  0  0  0
    2.4293    1.3357   -1.6323 O   0  0  0  0  0  0  0  0  0  0  0  0
    4.7613    1.4708   -0.8414 O   0  0  0  0  0  0  0  0  0  0  0  0
    2.6688   -2.0551   -0.0667 P   0  0  0  0  0  0  0  0  0  0  0  0
    1.7483   -2.3899   -1.4696 O   0  0  0  0  0  0  0  0  0  0  0  0
    4.1842   -2.7189   -0.3827 O   0  0  0  0  0  0  0  0  0  0  0  0
    2.2797   -0.6522   -0.9126 O   0  0  0  0  0  0  0  0  0  0  0  0
    1.0339   -2.1531    0.3545 O   0  0  0  0  0  0  0  0  0  0  0  0
    0.7364   -3.2904    1.0620 C   0  0  0  0  0  0  0  0  0  0  0  0
   -0.7404   -3.3793    1.4650 C   0  0  1  0  0  0  0  0  0  0  0  0
   -1.0149   -2.2928    2.2427 O   0  0  0  0  0  0  0  0  0  0  0  0
   -1.6391   -3.4188    0.2818 C   0  0  1  0  0  0  0  0  0  0  0  0
   -2.6098   -4.4131    0.4593 O   0  0  0  0  0  0  0  0  0  0  0  0
   -2.3380   -2.0943    0.3104 C   0  0  1  0  0  0  0  0  0  0  0  0
   -3.7407   -2.2646    0.2953 O   0  0  0  0  0  0  0  0  0  0  0  0
   -1.8866   -1.4741    1.5915 C   0  0  2  0  0  0  0  0  0  0  0  0
   -1.4137   -0.1223    1.4267 N   0  0  0  0  0  0  0  0  0  0  0  0
   -0.9294    0.4540    2.6714 C   0  0  0  0  0  0  0  0  0  0  0  0
   -0.7274    1.8392    2.2854 N   0  0  0  0  0  0  0  0  0  0  0  0
   -1.6358    2.0905    1.1512 C   0  0  0  0  0  0  0  0  0  0  0  0
   -0.8013    2.0444   -0.1244 C   0  0  2  0  0  0  0  0  0  0  0  0
   -0.3149    3.3883   -0.4586 N   0  0  0  0  0  0  0  0  0  0  0  0
   -1.5876    1.6355   -1.2650 N   0  0  0  0  0  0  0  0  0  0  0  0
   -3.0006    1.5990   -0.9706 C   0  0  0  0  0  0  0  0  0  0  0  0
   -3.2064    0.5458    0.0048 N   0  0  0  0  0  0  0  0  0  0  0  0
   -2.4800    0.8349    1.1822 C   0  0  0  0  0  0  0  0  0  0  0  0
    5.2333    2.9172    1.1999 H   0  0  0  0  0  0  0  0  0  0  0  0
    2.3818    3.7773    0.4625 H   0  0  0  0  0  0  0  0  0  0  0  0
    4.2731    0.7178    1.5524 H   0  0  0  0  0  0  0  0  0  0  0  0
    5.1095    4.2232   -0.8452 H   0  0  0  0  0  0  0  0  0  0  0  0
    5.0395    0.2849   -0.8701 H   0  0  0  0  0  0  0  0  0  0  0  0
    4.2595    0.1286   -3.4088 H   0  0  0  0  0  0  0  0  0  0  0  0
    2.6967    1.9502   -2.3857 H   0  0  0  0  0  0  0  0  0  0  0  0
    1.6071   -1.2745   -0.4978 H   0  0  0  0  0  0  0  0  0  0  0  0
    2.1004   -3.1877   -1.9590 H   0  0  0  0  0  0  0  0  0  0  0  0
    4.0073   -3.5040   -0.9817 H   0  0  0  0  0  0  0  0  0  0  0  0
    0.9688   -4.2451    0.5335 H   0  0  0  0  0  0  0  0  0  0  0  0
    1.3101   -3.3254    2.0311 H   0  0  0  0  0  0  0  0  0  0  0  0
   -0.8489   -4.3515    2.0177 H   0  0  0  0  0  0  0  0  0  0  0  0
   -1.1043   -3.6015   -0.6765 H   0  0  0  0  0  0  0  0  0  0  0  0
   -3.2406   -4.3048   -0.3017 H   0  0  0  0  0  0  0  0  0  0  0  0
   -2.1018   -1.4695   -0.5818 H   0  0  0  0  0  0  0  0  0  0  0  0
   -4.0030   -2.4136   -0.6519 H   0  0  0  0  0  0  0  0  0  0  0  0
   -2.8043   -1.3693    2.2475 H   0  0  0  0  0  0  0  0  0  0  0  0
   -0.0094   -0.0277    3.0490 H   0  0  0  0  0  0  0  0  0  0  0  0
   -1.7432    0.3754    3.4244 H   0  0  0  0  0  0  0  0  0  0  0  0
   -0.9571    2.4422    3.0923 H   0  0  0  0  0  0  0  0  0  0  0  0
   -2.1870    3.0193    1.2849 H   0  0  0  0  0  0  0  0  0  0  0  0
    0.0559    1.3705    0.0800 H   0  0  0  0  0  0  0  0  0  0  0  0
   -0.1001    3.4080   -1.4813 H   0  0  0  0  0  0  0  0  0  0  0  0
   -1.1089    4.0467   -0.2860 H   0  0  0  0  0  0  0  0  0  0  0  0
   -1.2435    0.7659   -1.6949 H   0  0  0  0  0  0  0  0  0  0  0  0
   -3.2945    2.5625   -0.5051 H   0  0  0  0  0  0  0  0  0  0  0  0
   -3.5615    1.3449   -1.8687 H   0  0  0  0  0  0  0  0  0  0  0  0
   -4.2196    0.4293    0.2425 H   0  0  0  0  0  0  0  0  0  0  0  0
   -3.1143    0.8043    2.0994 H   0  0  0  0  0  0  0  0  0  0  0  0
  1  2  1  0
  1  3  1  0
  1  4  1  0
  1  8  1  0
  5  6  1  0
  5  7  1  0
  5  8  1  0
  5 12  1  0
  9 10  1  0
  9 11  1  0
  9 12  1  0
  9 13  1  0
 13 14  1  0
 14 15  1  0
 15 16  1  0
 15 17  1  0
 16 21  1  0
 17 18  1  0
 17 19  1  0
 19 20  1  0
 19 21  1  0
 21 22  1  0
 22 23  1  0
 22 31  1  0
 23 24  1  0
 24 25  1  0
 25 26  1  0
 25 31  1  0
 26 27  1  0
 26 28  1  0
 28 29  1  0
 29 30  1  0
 30 31  1  0
  1 32  1  0
  2 33  1  0
  3 34  1  0
  4 35  1  0
  5 36  1  0
  6 37  1  0
  7 38  1  0
  9 39  1  0
 10 40  1  0
 11 41  1  0
 14 42  1  0
 14 43  1  0
 15 44  1  1
 17 45  1  6
 18 46  1  0
 19 47  1  6
 20 48  1  0
 21 49  1  1
 23 50  1  0
 23 51  1  0
 24 52  1  0
 25 53  1  0
 26 54  1  1
 27 55  1  0
 27 56  1  0
 28 57  1  0
 29 58  1  0
 29 59  1  0
 30 60  1  0
 31 61  1  0
M  END
$$$$
ADENYLATE KINASE
     RDKit          3D

 61 63  0  0  0  0  0  0  0  0999 V2000
   -1.6296   -2.7751   -2.2401 P   0  0  0  0  0  0  0  0  0  0  0  0
   -2.9814   -1.8063   -2.0107 O   0  0  0  0  0  0  0  0  0  0  0  0
   -1.0751   -4.2289   -1.5803 O   0  0  0  0  0  0  0  0  0  0  0  0
    0.0569   -2.8236   -2.2021 O   0  0  0  0  0  0  0  0  0  0  0  0
   -0.9006   -1.9333   -4.7459 P   0  0  0  0  0  0  0  0  0  0  0  0
   -1.5702   -3.3607   -5.3826 O   0  0  0  0  0  0  0  0  0  0  0  0
    0.8033   -1.8869   -4.7396 O   0  0  0  0  0  0  0  0  0  0  0  0
   -2.0086   -2.8278   -3.8737 O   0  0  0  0  0  0  0  0  0  0  0  0
   -1.7503    0.6943   -4.5058 P   0  0  0  0  0  0  0  0  0  0  0  0
   -3.3614    1.2429   -4.4799 O   0  0  0  0  0  0  0  0  0  0  0  0
   -1.0420    1.1315   -5.9996 O   0  0  0  0  0  0  0  0  0  0  0  0
   -1.8366   -0.7200   -5.4281 O   0  0  0  0  0  0  0  0  0  0  0  0
   -0.8832    1.7043   -3.4468 O   0  0  0  0  0  0  0  0  0  0  0  0
   -1.0600    1.2193   -2.1695 C   0  0  0  0  0  0  0  0  0  0  0  0
   -0.3412    2.0249   -1.1244 C   0  0  1  0  0  0  0  0  0  0  0  0
   -0.5900    1.4469    0.1145 O   0  0  0  0  0  0  0  0  0  0  0  0
    1.1531    1.9434   -1.3392 C   0  0  1  0  0  0  0  0  0  0  0  0
    1.6516    3.0954   -1.9289 O   0  0  0  0  0  0  0  0  0  0  0  0
    1.7234    1.7329    0.0298 C   0  0  1  0  0  0  0  0  0  0  0  0
    2.5285    2.8240    0.3554 O   0  0  0  0  0  0  0  0  0  0  0  0
    0.5030    1.6693    0.9075 C   0  0  2  0  0  0  0  0  0  0  0  0
    0.7132    0.6166    1.8589 N   0  0  0  0  0  0  0  0  0  0  0  0
    1.8746    0.8365    2.6931 C   0  0  0  0  0  0  0  0  0  0  0  0
    1.3889    1.0709    4.0612 N   0  0  0  0  0  0  0  0  0  0  0  0
    0.0104    1.4233    3.8459 C   0  0  0  0  0  0  0  0  0  0  0  0
   -0.8881    1.2037    5.0123 C   0  0  2  0  0  0  0  0  0  0  0  0
   -0.2574    1.0279    6.2793 N   0  0  0  0  0  0  0  0  0  0  0  0
   -1.8079    0.1204    4.6867 N   0  0  0  0  0  0  0  0  0  0  0  0
   -2.5384    0.4586    3.4837 C   0  0  0  0  0  0  0  0  0  0  0  0
   -1.6687    0.7115    2.3455 N   0  0  0  0  0  0  0  0  0  0  0  0
   -0.3412    0.3999    2.7838 C   0  0  0  0  0  0  0  0  0  0  0  0
   -2.3794   -3.4711   -3.1856 H   0  0  0  0  0  0  0  0  0  0  0  0
   -2.8126   -1.2363   -1.2111 H   0  0  0  0  0  0  0  0  0  0  0  0
   -1.5977   -4.5639   -0.8337 H   0  0  0  0  0  0  0  0  0  0  0  0
    0.4747   -1.9780   -2.4270 H   0  0  0  0  0  0  0  0  0  0  0  0
   -1.8624   -1.6678   -5.7583 H   0  0  0  0  0  0  0  0  0  0  0  0
   -0.8924   -3.8831   -5.9176 H   0  0  0  0  0  0  0  0  0  0  0  0
    1.0794   -2.4026   -5.5504 H   0  0  0  0  0  0  0  0  0  0  0  0
   -2.7834    0.0122   -5.1746 H   0  0  0  0  0  0  0  0  0  0  0  0
   -3.4145    1.9092   -3.7744 H   0  0  0  0  0  0  0  0  0  0  0  0
   -1.6596    1.7847   -6.4060 H   0  0  0  0  0  0  0  0  0  0  0  0
   -0.6043    0.2021   -2.1489 H   0  0  0  0  0  0  0  0  0  0  0  0
   -2.1446    1.1771   -1.9212 H   0  0  0  0  0  0  0  0  0  0  0  0
   -0.6382    3.0850   -1.1374 H   0  0  0  0  0  0  0  0  0  0  0  0
    1.4090    1.0563   -1.9723 H   0  0  0  0  0  0  0  0  0  0  0  0
    2.0503    2.8971   -2.8055 H   0  0  0  0  0  0  0  0  0  0  0  0
    2.3351    0.8140    0.0926 H   0  0  0  0  0  0  0  0  0  0  0  0
    2.0519    3.6533    0.0414 H   0  0  0  0  0  0  0  0  0  0  0  0
    0.4392    2.6307    1.4692 H   0  0  0  0  0  0  0  0  0  0  0  0
    2.4579   -0.1215    2.6323 H   0  0  0  0  0  0  0  0  0  0  0  0
    2.5436    1.6288    2.3618 H   0  0  0  0  0  0  0  0  0  0  0  0
    1.4776    0.1529    4.5493 H   0  0  0  0  0  0  0  0  0  0  0  0
   -0.0766    2.4242    3.4284 H   0  0  0  0  0  0  0  0  0  0  0  0
   -1.5384    2.1012    5.1125 H   0  0  0  0  0  0  0  0  0  0  0  0
   -0.6425    1.6367    7.0346 H   0  0  0  0  0  0  0  0  0  0  0  0
    0.7553    0.9164    6.2976 H   0  0  0  0  0  0  0  0  0  0  0  0
   -2.5001   -0.0761    5.4162 H   0  0  0  0  0  0  0  0  0  0  0  0
   -3.1390   -0.4411    3.2256 H   0  0  0  0  0  0  0  0  0  0  0  0
   -3.2531    1.2939    3.6182 H   0  0  0  0  0  0  0  0  0  0  0  0
   -1.9534    0.1577    1.5083 H   0  0  0  0  0  0  0  0  0  0  0  0
   -0.2823   -0.6351    3.1690 H   0  0  0  0  0  0  0  0  0  0  0  0
  1  2  1  0
  1  3  1  0
  1  4  1  0
  1  8  1  0
  5  6  1  0
  5  7  1  0
  5  8  1  0
  5 12  1  0
  9 10  1  0
  9 11  1  0
  9 12  1  0
  9 13  1  0
 13 14  1  0
 14 15  1  0
 15 16  1  0
 15 17  1  0
 16 21  1  0
 17 18  1  0
 17 19  1  0
 19 20  1  0
 19 21  1  0
 21 22  1  0
 22 23  1  0
 22 31  1  0
 23 24  1  0
 24 25  1  0
 25 26  1  0
 25 31  1  0
 26 27  1  0
 26 28  1  0
 28 29  1  0
 29 30  1  0
 30 31  1  0
  1 32  1  0
  2 33  1  0
  3 34  1  0
  4 35  1  0
  5 36  1  0
  6 37  1  0
  7 38  1  0
  9 39  1  0
 10 40  1  0
 11 41  1  0
 14 42  1  0
 14 43  1  0
 15 44  1  1
 17 45  1  6
 18 46  1  0
 19 47  1  6
 20 48  1  0
 21 49  1  1
 23 50  1  0
 23 51  1  0
 24 52  1  0
 25 53  1  0
 26 54  1  1
 27 55  1  0
 27 56  1  0
 28 57  1  0
 29 58  1  0
 29 59  1  0
 30 60  1  0
 31 61  1  0
M  END
$$$$
ADENYLATE KINASE
     RDKit          3D

 61 63  0  0  0  0  0  0  0  0999 V2000
    1.6872    4.3071    2.1467 P   0  0  0  0  0  0  0  0  0  0  0  0
    0.3711    5.0585    1.3959 O   0  0  0  0  0  0  0  0  0  0  0  0
    2.7113    2.9881    1.9908 O   0  0  0  0  0  0  0  0  0  0  0  0
    2.9855    5.3632    2.2704 O   0  0  0  0  0  0  0  0  0  0  0  0
   -0.0381    2.7613    3.5673 P   0  0  0  0  0  0  0  0  0  0  0  0
   -1.7152    2.9788    3.8262 O   0  0  0  0  0  0  0  0  0  0  0  0
    0.2500    1.9958    2.0880 O   0  0  0  0  0  0  0  0  0  0  0  0
    1.4320    3.5536    3.6369 O   0  0  0  0  0  0  0  0  0  0  0  0
    0.0033   -0.0383    3.8358 P   0  0  0  0  0  0  0  0  0  0  0  0
    1.0699   -0.5619    5.0155 O   0  0  0  0  0  0  0  0  0  0  0  0
   -0.4757   -1.1601    5.0131 O   0  0  0  0  0  0  0  0  0  0  0  0
   -0.0217    1.4580    4.6256 O   0  0  0  0  0  0  0  0  0  0  0  0
   -0.3221   -1.0970    2.5750 O   0  0  0  0  0  0  0  0  0  0  0  0
   -1.6775   -1.2300    2.2916 C   0  0  0  0  0  0  0  0  0  0  0  0
   -1.7601   -2.2164    1.1372 C   0  0  1  0  0  0  0  0  0  0  0  0
   -1.0297   -1.6193    0.0916 O   0  0  0  0  0  0  0  0  0  0  0  0
   -0.8803   -3.4304    1.3824 C   0  0  1  0  0  0  0  0  0  0  0  0
   -1.4957   -4.4228    2.1138 O   0  0  0  0  0  0  0  0  0  0  0  0
   -0.6029   -3.8642   -0.0621 C   0  0  1  0  0  0  0  0  0  0  0  0
   -1.4656   -4.8847   -0.3834 O   0  0  0  0  0  0  0  0  0  0  0  0
   -0.8376   -2.5954   -0.8604 C   0  0  2  0  0  0  0  0  0  0  0  0
    0.2918   -2.3893   -1.7032 N   0  0  0  0  0  0  0  0  0  0  0  0
    0.3890   -3.5532   -2.5718 C   0  0  0  0  0  0  0  0  0  0  0  0
   -0.6577   -3.2349   -3.5550 N   0  0  0  0  0  0  0  0  0  0  0  0
   -0.3708   -1.8649   -3.9313 C   0  0  0  0  0  0  0  0  0  0  0  0
   -1.5857   -1.0529   -4.2632 C   0  0  2  0  0  0  0  0  0  0  0  0
   -2.1039   -1.4252   -5.5869 N   0  0  0  0  0  0  0  0  0  0  0  0
   -1.1663    0.3248   -4.3913 N   0  0  0  0  0  0  0  0  0  0  0  0
   -0.3959    0.8115   -3.2873 C   0  0  0  0  0  0  0  0  0  0  0  0
   -0.4456   -0.1386   -2.1874 N   0  0  0  0  0  0  0  0  0  0  0  0
    0.2162   -1.3317   -2.6423 C   0  0  0  0  0  0  0  0  0  0  0  0
    1.8250    5.0187    0.9410 H   0  0  0  0  0  0  0  0  0  0  0  0
   -0.4348    4.5878    1.7037 H   0  0  0  0  0  0  0  0  0  0  0  0
    2.5565    2.5575    1.0994 H   0  0  0  0  0  0  0  0  0  0  0  0
    2.8050    6.1274    2.8640 H   0  0  0  0  0  0  0  0  0  0  0  0
   -0.2499    2.6743    4.9502 H   0  0  0  0  0  0  0  0  0  0  0  0
   -2.0708    3.5760    3.1403 H   0  0  0  0  0  0  0  0  0  0  0  0
   -0.5837    1.5211    1.8669 H   0  0  0  0  0  0  0  0  0  0  0  0
    0.6579   -0.3429    2.6281 H   0  0  0  0  0  0  0  0  0  0  0  0
    1.9868   -0.5287    4.6462 H   0  0  0  0  0  0  0  0  0  0  0  0
   -1.4421   -1.3196    4.9922 H   0  0  0  0  0  0  0  0  0  0  0  0
   -2.1434   -0.3022    1.9319 H   0  0  0  0  0  0  0  0  0  0  0  0
   -2.2375   -1.6720    3.1472 H   0  0  0  0  0  0  0  0  0  0  0  0
   -2.7833   -2.4718    0.8437 H   0  0  0  0  0  0  0  0  0  0  0  0
    0.0443   -3.0373    1.8652 H   0  0  0  0  0  0  0  0  0  0  0  0
   -0.7991   -4.9996    2.5043 H   0  0  0  0  0  0  0  0  0  0  0  0
    0.4746   -4.1576   -0.0691 H   0  0  0  0  0  0  0  0  0  0  0  0
   -2.3295   -4.7981    0.1047 H   0  0  0  0  0  0  0  0  0  0  0  0
   -1.7404   -2.7970   -1.4718 H   0  0  0  0  0  0  0  0  0  0  0  0
    0.1012   -4.4946   -2.0811 H   0  0  0  0  0  0  0  0  0  0  0  0
    1.3826   -3.6288   -3.0637 H   0  0  0  0  0  0  0  0  0  0  0  0
   -0.4337   -3.8421   -4.3969 H   0  0  0  0  0  0  0  0  0  0  0  0
    0.3259   -1.8025   -4.7833 H   0  0  0  0  0  0  0  0  0  0  0  0
   -2.4266   -1.1720   -3.5675 H   0  0  0  0  0  0  0  0  0  0  0  0
   -2.7641   -2.2003   -5.4570 H   0  0  0  0  0  0  0  0  0  0  0  0
   -2.5425   -0.5814   -6.0245 H   0  0  0  0  0  0  0  0  0  0  0  0
   -0.5811    0.4274   -5.2604 H   0  0  0  0  0  0  0  0  0  0  0  0
   -0.8955    1.7517   -2.9299 H   0  0  0  0  0  0  0  0  0  0  0  0
    0.6484    1.0824   -3.5517 H   0  0  0  0  0  0  0  0  0  0  0  0
   -1.4507   -0.2694   -1.9866 H   0  0  0  0  0  0  0  0  0  0  0  0
    1.2690   -1.0187   -2.8723 H   0  0  0  0  0  0  0  0  0  0  0  0
  1  2  1  0
  1  3  1  0
  1  4  1  0
  1  8  1  0
  5  6  1  0
  5  7  1  0
  5  8  1  0
  5 12  1  0
  9 10  1  0
  9 11  1  0
  9 12  1  0
  9 13  1  0
 13 14  1  0
 14 15  1  0
 15 16  1  0
 15 17  1  0
 16 21  1  0
 17 18  1  0
 17 19  1  0
 19 20  1  0
 19 21  1  0
 21 22  1  0
 22 23  1  0
 22 31  1  0
 23 24  1  0
 24 25  1  0
 25 26  1  0
 25 31  1  0
 26 27  1  0
 26 28  1  0
 28 29  1  0
 29 30  1  0
 30 31  1  0
  1 32  1  0
  2 33  1  0
  3 34  1  0
  4 35  1  0
  5 36  1  0
  6 37  1  0
  7 38  1  0
  9 39  1  0
 10 40  1  0
 11 41  1  0
 14 42  1  0
 14 43  1  0
 15 44  1  6
 17 45  1  1
 18 46  1  0
 19 47  1  1
 20 48  1  0
 21 49  1  6
 23 50  1  0
 23 51  1  0
 24 52  1  0
 25 53  1  0
 26 54  1  1
 27 55  1  0
 27 56  1  0
 28 57  1  0
 29 58  1  0
 29 59  1  0
 30 60  1  0
 31 61  1  0
M  END
$$$$
ADENYLATE KINASE
     RDKit          3D

 61 63  0  0  0  0  0  0  0  0999 V2000
   -3.8854    2.6337    6.1812 P   0  0  0  0  0  0  0  0  0  0  0  0
   -2.6426    3.2789    7.1582 O   0  0  0  0  0  0  0  0  0  0  0  0
   -4.4346    1.3220    7.1353 O   0  0  0  0  0  0  0  0  0  0  0  0
   -5.0100    3.8839    6.3761 O   0  0  0  0  0  0  0  0  0  0  0  0
   -4.4589    0.6282    4.4345 P   0  0  0  0  0  0  0  0  0  0  0  0
   -4.8604    2.0679    3.6023 O   0  0  0  0  0  0  0  0  0  0  0  0
   -2.8012    0.6068    4.6276 O   0  0  0  0  0  0  0  0  0  0  0  0
   -5.0211    1.5174    5.6944 O   0  0  0  0  0  0  0  0  0  0  0  0
   -3.5075   -0.2983    2.1913 P   0  0  0  0  0  0  0  0  0  0  0  0
   -4.8540    0.0107    1.2164 O   0  0  0  0  0  0  0  0  0  0  0  0
   -3.2252   -1.9072    1.7504 O   0  0  0  0  0  0  0  0  0  0  0  0
   -3.6780   -0.7413    3.7993 O   0  0  0  0  0  0  0  0  0  0  0  0
   -2.5744   -0.5454    0.8410 O   0  0  0  0  0  0  0  0  0  0  0  0
   -1.2052   -0.4129    1.0647 C   0  0  0  0  0  0  0  0  0  0  0  0
   -0.5178   -0.6571   -0.2340 C   0  0  1  0  0  0  0  0  0  0  0  0
    0.8739   -0.5621   -0.1750 O   0  0  0  0  0  0  0  0  0  0  0  0
   -0.7000   -2.0187   -0.8177 C   0  0  1  0  0  0  0  0  0  0  0  0
   -1.9683   -2.3004   -1.2637 O   0  0  0  0  0  0  0  0  0  0  0  0
    0.3313   -1.9830   -1.9547 C   0  0  1  0  0  0  0  0  0  0  0  0
   -0.3935   -1.6180   -3.0911 O   0  0  0  0  0  0  0  0  0  0  0  0
    1.2109   -0.8383   -1.4981 C   0  0  2  0  0  0  0  0  0  0  0  0
    2.6256   -1.1276   -1.6146 N   0  0  0  0  0  0  0  0  0  0  0  0
    3.3485    0.0586   -1.1217 C   0  0  0  0  0  0  0  0  0  0  0  0
    4.6671   -0.0405   -1.7384 N   0  0  0  0  0  0  0  0  0  0  0  0
    4.5764   -0.9895   -2.8046 C   0  0  0  0  0  0  0  0  0  0  0  0
    5.1306   -0.5061   -4.1253 C   0  0  2  0  0  0  0  0  0  0  0  0
    5.3592    0.9113   -4.0086 N   0  0  0  0  0  0  0  0  0  0  0  0
    4.1513   -0.8133   -5.1482 N   0  0  0  0  0  0  0  0  0  0  0  0
    3.6145   -2.1573   -4.9648 C   0  0  0  0  0  0  0  0  0  0  0  0
    2.7545   -2.2297   -3.7717 N   0  0  0  0  0  0  0  0  0  0  0  0
    3.0605   -1.0662   -3.0083 C   0  0  0  0  0  0  0  0  0  0  0  0
   -5.2806    2.4627    6.1130 H   0  0  0  0  0  0  0  0  0  0  0  0
   -3.0886    3.3470    8.0619 H   0  0  0  0  0  0  0  0  0  0  0  0
   -4.1128    1.4030    8.0831 H   0  0  0  0  0  0  0  0  0  0  0  0
   -4.5947    4.7812    6.3383 H   0  0  0  0  0  0  0  0  0  0  0  0
   -5.6999    1.1770    4.8379 H   0  0  0  0  0  0  0  0  0  0  0  0
   -4.9219    1.8622    2.6397 H   0  0  0  0  0  0  0  0  0  0  0  0
   -2.4984    1.5667    4.6781 H   0  0  0  0  0  0  0  0  0  0  0  0
   -2.6800   -0.9535    3.1216 H   0  0  0  0  0  0  0  0  0  0  0  0
   -5.5385   -0.6577    1.5028 H   0  0  0  0  0  0  0  0  0  0  0  0
   -4.0417   -2.4673    1.8062 H   0  0  0  0  0  0  0  0  0  0  0  0
   -0.8857   -1.0889    1.8552 H   0  0  0  0  0  0  0  0  0  0  0  0
   -1.0097    0.6186    1.3759 H   0  0  0  0  0  0  0  0  0  0  0  0
   -0.8357    0.0909   -0.9879 H   0  0  0  0  0  0  0  0  0  0  0  0
   -0.3664   -2.7468   -0.0511 H   0  0  0  0  0  0  0  0  0  0  0  0
   -2.4868   -1.4850   -1.3866 H   0  0  0  0  0  0  0  0  0  0  0  0
    0.8638   -2.9301   -2.0677 H   0  0  0  0  0  0  0  0  0  0  0  0
   -1.1819   -2.2335   -3.1722 H   0  0  0  0  0  0  0  0  0  0  0  0
    0.9522    0.1093   -2.0553 H   0  0  0  0  0  0  0  0  0  0  0  0
    3.3808    0.0985   -0.0277 H   0  0  0  0  0  0  0  0  0  0  0  0
    2.8298    0.9172   -1.6056 H   0  0  0  0  0  0  0  0  0  0  0  0
    5.3513   -0.2759   -0.9897 H   0  0  0  0  0  0  0  0  0  0  0  0
    5.0041   -1.9679   -2.5781 H   0  0  0  0  0  0  0  0  0  0  0  0
    6.0674   -1.0523   -4.3785 H   0  0  0  0  0  0  0  0  0  0  0  0
    5.4757    1.2057   -3.0134 H   0  0  0  0  0  0  0  0  0  0  0  0
    6.2659    1.1370   -4.4851 H   0  0  0  0  0  0  0  0  0  0  0  0
    4.6033   -0.8148   -6.0818 H   0  0  0  0  0  0  0  0  0  0  0  0
    4.4655   -2.8338   -4.7667 H   0  0  0  0  0  0  0  0  0  0  0  0
    3.0921   -2.4894   -5.8632 H   0  0  0  0  0  0  0  0  0  0  0  0
    2.9586   -3.0906   -3.2247 H   0  0  0  0  0  0  0  0  0  0  0  0
    2.7558   -0.1332   -3.4880 H   0  0  0  0  0  0  0  0  0  0  0  0
  1  2  1  0
  1  3  1  0
  1  4  1  0
  1  8  1  0
  5  6  1  0
  5  7  1  0
  5  8  1  0
  5 12  1  0
  9 10  1  0
  9 11  1  0
  9 12  1  0
  9 13  1  0
 13 14  1  0
 14 15  1  0
 15 16  1  0
 15 17  1  0
 16 21  1  0
 17 18  1  0
 17 19  1  0
 19 20  1  0
 19 21  1  0
 21 22  1  0
 22 23  1  0
 22 31  1  0
 23 24  1  0
 24 25  1  0
 25 26  1  0
 25 31  1  0
 26 27  1  0
 26 28  1  0
 28 29  1  0
 29 30  1  0
 30 31  1  0
  1 32  1  0
  2 33  1  0
  3 34  1  0
  4 35  1  0
  5 36  1  0
  6 37  1  0
  7 38  1  0
  9 39  1  0
 10 40  1  0
 11 41  1  0
 14 42  1  0
 14 43  1  0
 15 44  1  6
 17 45  1  1
 18 46  1  0
 19 47  1  6
 20 48  1  0
 21 49  1  6
 23 50  1  0
 23 51  1  0
 24 52  1  0
 25 53  1  0
 26 54  1  6
 27 55  1  0
 27 56  1  0
 28 57  1  0
 29 58  1  0
 29 59  1  0
 30 60  1  0
 31 61  1  0
M  END
$$$$
ADENYLATE KINASE
     RDKit          3D

 61 63  0  0  0  0  0  0  0  0999 V2000
    2.3948   -2.0855   -1.1336 P   0  0  0  0  0  0  0  0  0  0  0  0
    2.5662   -3.5898   -0.3829 O   0  0  0  0  0  0  0  0  0  0  0  0
    2.2209   -2.2087   -2.7946 O   0  0  0  0  0  0  0  0  0  0  0  0
    1.7730   -1.8096    0.4265 O   0  0  0  0  0  0  0  0  0  0  0  0
    3.6231    0.3764   -0.7017 P   0  0  0  0  0  0  0  0  0  0  0  0
    3.0904    0.2819    0.9039 O   0  0  0  0  0  0  0  0  0  0  0  0
    5.0842   -0.4258   -0.4060 O   0  0  0  0  0  0  0  0  0  0  0  0
    3.6628   -1.0672   -1.5287 O   0  0  0  0  0  0  0  0  0  0  0  0
    2.5125    2.8238   -0.4319 P   0  0  0  0  0  0  0  0  0  0  0  0
    3.4991    4.2146   -0.5720 O   0  0  0  0  0  0  0  0  0  0  0  0
    1.1455    3.0615   -1.3740 O   0  0  0  0  0  0  0  0  0  0  0  0
    2.7875    1.5738   -1.5650 O   0  0  0  0  0  0  0  0  0  0  0  0
    1.9683    2.5401    1.1440 O   0  0  0  0  0  0  0  0  0  0  0  0
    0.5738    2.5624    1.1265 C   0  0  0  0  0  0  0  0  0  0  0  0
    0.0005    2.3120    2.5273 C   0  0  1  0  0  0  0  0  0  0  0  0
   -1.3623    2.3497    2.4251 O   0  0  0  0  0  0  0  0  0  0  0  0
    0.3449    0.8949    2.9313 C   0  0  1  0  0  0  0  0  0  0  0  0
    1.5355    0.9129    3.6918 O   0  0  0  0  0  0  0  0  0  0  0  0
   -0.8409    0.5238    3.7788 C   0  0  1  0  0  0  0  0  0  0  0  0
   -0.4616    0.8410    5.1043 O   0  0  0  0  0  0  0  0  0  0  0  0
   -1.9240    1.4080    3.2707 C   0  0  2  0  0  0  0  0  0  0  0  0
   -3.0945    0.7878    2.7807 N   0  0  0  0  0  0  0  0  0  0  0  0
   -4.0065    1.8446    2.3413 C   0  0  0  0  0  0  0  0  0  0  0  0
   -4.1580    1.7170    0.9012 N   0  0  0  0  0  0  0  0  0  0  0  0
   -3.0414    0.8983    0.4921 C   0  0  0  0  0  0  0  0  0  0  0  0
   -3.2082    0.1501   -0.7762 C   0  0  2  0  0  0  0  0  0  0  0  0
   -4.4964   -0.3787   -1.0386 N   0  0  0  0  0  0  0  0  0  0  0  0
   -2.1478   -0.8550   -0.8135 N   0  0  0  0  0  0  0  0  0  0  0  0
   -2.2696   -1.7513    0.3137 C   0  0  0  0  0  0  0  0  0  0  0  0
   -2.0745   -1.0897    1.5964 N   0  0  0  0  0  0  0  0  0  0  0  0
   -3.0325   -0.0527    1.6586 C   0  0  0  0  0  0  0  0  0  0  0  0
    3.7784   -2.2980   -1.0186 H   0  0  0  0  0  0  0  0  0  0  0  0
    2.2880   -4.2976   -1.0223 H   0  0  0  0  0  0  0  0  0  0  0  0
    1.3599   -2.6785   -2.9896 H   0  0  0  0  0  0  0  0  0  0  0  0
    0.9038   -1.3130    0.2918 H   0  0  0  0  0  0  0  0  0  0  0  0
    4.0040    1.0701   -1.8691 H   0  0  0  0  0  0  0  0  0  0  0  0
    3.6789    0.9049    1.4188 H   0  0  0  0  0  0  0  0  0  0  0  0
    5.8011    0.2781   -0.4310 H   0  0  0  0  0  0  0  0  0  0  0  0
    3.4366    3.0991    0.6055 H   0  0  0  0  0  0  0  0  0  0  0  0
    3.0374    4.7946   -1.2446 H   0  0  0  0  0  0  0  0  0  0  0  0
    0.8720    4.0037   -1.2665 H   0  0  0  0  0  0  0  0  0  0  0  0
    0.2663    1.7530    0.4336 H   0  0  0  0  0  0  0  0  0  0  0  0
    0.1510    3.5139    0.7554 H   0  0  0  0  0  0  0  0  0  0  0  0
    0.3566    3.0598    3.2330 H   0  0  0  0  0  0  0  0  0  0  0  0
    0.4778    0.2651    2.0500 H   0  0  0  0  0  0  0  0  0  0  0  0
    2.0759    0.0972    3.5172 H   0  0  0  0  0  0  0  0  0  0  0  0
   -1.0490   -0.5491    3.8013 H   0  0  0  0  0  0  0  0  0  0  0  0
    0.3495    0.2758    5.2562 H   0  0  0  0  0  0  0  0  0  0  0  0
   -2.2709    2.0286    4.1502 H   0  0  0  0  0  0  0  0  0  0  0  0
   -4.9764    1.7528    2.8685 H   0  0  0  0  0  0  0  0  0  0  0  0
   -3.6057    2.8522    2.5251 H   0  0  0  0  0  0  0  0  0  0  0  0
   -4.2228    2.6174    0.4001 H   0  0  0  0  0  0  0  0  0  0  0  0
   -2.1196    1.4996    0.3824 H   0  0  0  0  0  0  0  0  0  0  0  0
   -2.9641    0.8591   -1.6117 H   0  0  0  0  0  0  0  0  0  0  0  0
   -5.0816   -0.6381   -0.2347 H   0  0  0  0  0  0  0  0  0  0  0  0
   -4.4595   -1.0627   -1.8040 H   0  0  0  0  0  0  0  0  0  0  0  0
   -2.1986   -1.4368   -1.6585 H   0  0  0  0  0  0  0  0  0  0  0  0
   -1.6077   -2.6206    0.1735 H   0  0  0  0  0  0  0  0  0  0  0  0
   -3.3243   -2.1075    0.3077 H   0  0  0  0  0  0  0  0  0  0  0  0
   -2.3958   -1.8345    2.2867 H   0  0  0  0  0  0  0  0  0  0  0  0
   -4.0357   -0.5688    1.6106 H   0  0  0  0  0  0  0  0  0  0  0  0
  1  2  1  0
  1  3  1  0
  1  4  1  0
  1  8  1  0
  5  6  1  0
  5  7  1  0
  5  8  1  0
  5 12  1  0
  9 10  1  0
  9 11  1  0
  9 12  1  0
  9 13  1  0
 13 14  1  0
 14 15  1  0
 15 16  1  0
 15 17  1  0
 16 21  1  0
 17 18  1  0
 17 19  1  0
 19 20  1  0
 19 21  1  0
 21 22  1  0
 22 23  1  0
 22 31  1  0
 23 24  1  0
 24 25  1  0
 25 26  1  0
 25 31  1  0
 26 27  1  0
 26 28  1  0
 28 29  1  0
 29 30  1  0
 30 31  1  0
  1 32  1  0
  2 33  1  0
  3 34  1  0
  4 35  1  0
  5 36  1  0
  6 37  1  0
  7 38  1  0
  9 39  1  0
 10 40  1  0
 11 41  1  0
 14 42  1  0
 14 43  1  0
 15 44  1  1
 17 45  1  6
 18 46  1  0
 19 47  1  1
 20 48  1  0
 21 49  1  1
 23 50  1  0
 23 51  1  0
 24 52  1  0
 25 53  1  0
 26 54  1  6
 27 55  1  0
 27 56  1  0
 28 57  1  0
 29 58  1  0
 29 59  1  0
 30 60  1  0
 31 61  1  0
M  END
$$$$
ADENYLATE KINASE
     RDKit          3D

 61 63  0  0  0  0  0  0  0  0999 V2000
    0.2755   -0.2502   -4.3052 P   0  0  0  0  0  0  0  0  0  0  0  0
    1.6579   -1.1332   -3.9879 O   0  0  0  0  0  0  0  0  0  0  0  0
    0.3713    0.5043   -5.7889 O   0  0  0  0  0  0  0  0  0  0  0  0
    1.4988    0.8029   -3.7982 O   0  0  0  0  0  0  0  0  0  0  0  0
   -2.0114   -1.4317   -3.2677 P   0  0  0  0  0  0  0  0  0  0  0  0
   -0.9694   -2.7283   -3.0041 O   0  0  0  0  0  0  0  0  0  0  0  0
   -3.4025   -2.1631   -3.8751 O   0  0  0  0  0  0  0  0  0  0  0  0
   -1.3303   -0.6910   -4.6307 O   0  0  0  0  0  0  0  0  0  0  0  0
   -3.1107    0.1414   -1.2409 P   0  0  0  0  0  0  0  0  0  0  0  0
   -3.8222   -0.6942    0.0346 O   0  0  0  0  0  0  0  0  0  0  0  0
   -4.0864    1.4315   -1.6871 O   0  0  0  0  0  0  0  0  0  0  0  0
   -3.2567   -0.3852   -2.8339 O   0  0  0  0  0  0  0  0  0  0  0  0
   -1.9938    0.2199    0.0241 O   0  0  0  0  0  0  0  0  0  0  0  0
   -1.6915    1.5692    0.1901 C   0  0  0  0  0  0  0  0  0  0  0  0
   -0.6913    1.7887    1.3015 C   0  0  1  0  0  0  0  0  0  0  0  0
   -1.1426    1.3369    2.5172 O   0  0  0  0  0  0  0  0  0  0  0  0
    0.5601    0.9786    1.0745 C   0  0  1  0  0  0  0  0  0  0  0  0
    1.4397    1.6235    0.2088 O   0  0  0  0  0  0  0  0  0  0  0  0
    1.1275    0.8697    2.4727 C   0  0  1  0  0  0  0  0  0  0  0  0
    2.1591    1.8015    2.6013 O   0  0  0  0  0  0  0  0  0  0  0  0
   -0.0559    1.2151    3.3396 C   0  0  2  0  0  0  0  0  0  0  0  0
   -0.2372    0.3232    4.4401 N   0  0  0  0  0  0  0  0  0  0  0  0
    0.8928    0.3111    5.3037 C   0  0  0  0  0  0  0  0  0  0  0  0
    1.5777   -0.9258    4.9882 N   0  0  0  0  0  0  0  0  0  0  0  0
    0.4870   -1.8489    4.6407 C   0  0  0  0  0  0  0  0  0  0  0  0
    1.0148   -2.8773    3.7260 C   0  0  2  0  0  0  0  0  0  0  0  0
    2.4430   -2.7496    3.4899 N   0  0  0  0  0  0  0  0  0  0  0  0
    0.3976   -2.9489    2.4258 N   0  0  0  0  0  0  0  0  0  0  0  0
   -1.0007   -2.6661    2.5452 C   0  0  0  0  0  0  0  0  0  0  0  0
   -1.0909   -1.2381    2.8224 N   0  0  0  0  0  0  0  0  0  0  0  0
   -0.6305   -1.0088    4.1525 C   0  0  0  0  0  0  0  0  0  0  0  0
    0.9199   -0.7900   -5.4368 H   0  0  0  0  0  0  0  0  0  0  0  0
    1.4180   -1.7880   -3.2835 H   0  0  0  0  0  0  0  0  0  0  0  0
   -0.1641    1.3540   -5.7562 H   0  0  0  0  0  0  0  0  0  0  0  0
    1.0768    1.6027   -3.4317 H   0  0  0  0  0  0  0  0  0  0  0  0
   -2.8084   -0.8843   -4.2898 H   0  0  0  0  0  0  0  0  0  0  0  0
   -1.5335   -3.4929   -2.7459 H   0  0  0  0  0  0  0  0  0  0  0  0
   -3.5312   -3.0965   -3.5176 H   0  0  0  0  0  0  0  0  0  0  0  0
   -4.4341   -0.0115   -1.6405 H   0  0  0  0  0  0  0  0  0  0  0  0
   -3.7158   -1.6757   -0.0186 H   0  0  0  0  0  0  0  0  0  0  0  0
   -3.5708    2.2436   -1.9299 H   0  0  0  0  0  0  0  0  0  0  0  0
   -2.6028    2.1406    0.4460 H   0  0  0  0  0  0  0  0  0  0  0  0
   -1.2678    2.0315   -0.7257 H   0  0  0  0  0  0  0  0  0  0  0  0
   -0.4459    2.8695    1.3116 H   0  0  0  0  0  0  0  0  0  0  0  0
    0.3263   -0.0434    0.7237 H   0  0  0  0  0  0  0  0  0  0  0  0
    1.2222    1.3710   -0.7177 H   0  0  0  0  0  0  0  0  0  0  0  0
    1.5327   -0.1346    2.6638 H   0  0  0  0  0  0  0  0  0  0  0  0
    2.1362    2.5171    1.9232 H   0  0  0  0  0  0  0  0  0  0  0  0
    0.1482    2.2149    3.7814 H   0  0  0  0  0  0  0  0  0  0  0  0
    0.5819    0.2226    6.3685 H   0  0  0  0  0  0  0  0  0  0  0  0
    1.5519    1.1915    5.2157 H   0  0  0  0  0  0  0  0  0  0  0  0
    2.1580   -1.3045    5.7504 H   0  0  0  0  0  0  0  0  0  0  0  0
    0.2475   -2.3282    5.6320 H   0  0  0  0  0  0  0  0  0  0  0  0
    0.8871   -3.9127    4.1607 H   0  0  0  0  0  0  0  0  0  0  0  0
    2.6106   -2.2774    2.5806 H   0  0  0  0  0  0  0  0  0  0  0  0
    2.9094   -3.6805    3.4062 H   0  0  0  0  0  0  0  0  0  0  0  0
    0.5544   -3.8905    2.0155 H   0  0  0  0  0  0  0  0  0  0  0  0
   -1.5272   -2.9027    1.5747 H   0  0  0  0  0  0  0  0  0  0  0  0
   -1.5345   -3.1877    3.3381 H   0  0  0  0  0  0  0  0  0  0  0  0
   -2.1074   -1.0095    2.7295 H   0  0  0  0  0  0  0  0  0  0  0  0
   -1.5279   -1.2063    4.8124 H   0  0  0  0  0  0  0  0  0  0  0  0
  1  2  1  0
  1  3  1  0
  1  4  1  0
  1  8  1  0
  5  6  1  0
  5  7  1  0
  5  8  1  0
  5 12  1  0
  9 10  1  0
  9 11  1  0
  9 12  1  0
  9 13  1  0
 13 14  1  0
 14 15  1  0
 15 16  1  0
 15 17  1  0
 16 21  1  0
 17 18  1  0
 17 19  1  0
 19 20  1  0
 19 21  1  0
 21 22  1  0
 22 23  1  0
 22 31  1  0
 23 24  1  0
 24 25  1  0
 25 26  1  0
 25 31  1  0
 26 27  1  0
 26 28  1  0
 28 29  1  0
 29 30  1  0
 30 31  1  0
  1 32  1  0
  2 33  1  0
  3 34  1  0
  4 35  1  0
  5 36  1  0
  6 37  1  0
  7 38  1  0
  9 39  1  0
 10 40  1  0
 11 41  1  0
 14 42  1  0
 14 43  1  0
 15 44  1  1
 17 45  1  6
 18 46  1  0
 19 47  1  1
 20 48  1  0
 21 49  1  1
 23 50  1  0
 23 51  1  0
 24 52  1  0
 25 53  1  0
 26 54  1  1
 27 55  1  0
 27 56  1  0
 28 57  1  0
 29 58  1  0
 29 59  1  0
 30 60  1  0
 31 61  1  0
M  END
$$$$
ADENYLATE KINASE
     RDKit          3D

 61 63  0  0  0  0  0  0  0  0999 V2000
    1.5485    0.2078    4.7253 P   0  0  0  0  0  0  0  0  0  0  0  0
    0.5785    1.3559    3.9835 O   0  0  0  0  0  0  0  0  0  0  0  0
    2.8589   -0.8403    4.4110 O   0  0  0  0  0  0  0  0  0  0  0  0
    2.1871    1.7250    4.4209 O   0  0  0  0  0  0  0  0  0  0  0  0
    0.7213   -2.0536    3.3102 P   0  0  0  0  0  0  0  0  0  0  0  0
    2.0436   -2.9582    3.7850 O   0  0  0  0  0  0  0  0  0  0  0  0
   -0.3323   -3.1933    3.9607 O   0  0  0  0  0  0  0  0  0  0  0  0
    1.4432   -1.4475    4.6718 O   0  0  0  0  0  0  0  0  0  0  0  0
   -0.5888   -1.8194    1.0108 P   0  0  0  0  0  0  0  0  0  0  0  0
    0.4374   -1.7011   -0.3216 O   0  0  0  0  0  0  0  0  0  0  0  0
   -0.9406   -3.4872    1.0503 O   0  0  0  0  0  0  0  0  0  0  0  0
    0.9003   -1.5177    1.6980 O   0  0  0  0  0  0  0  0  0  0  0  0
   -0.9373   -0.6553   -0.1838 O   0  0  0  0  0  0  0  0  0  0  0  0
   -2.2874   -0.4299   -0.1250 C   0  0  0  0  0  0  0  0  0  0  0  0
   -2.7874    0.5957   -1.1393 C   0  0  1  0  0  0  0  0  0  0  0  0
   -2.2192    1.8314   -0.9986 O   0  0  0  0  0  0  0  0  0  0  0  0
   -2.4636    0.1418   -2.5437 C   0  0  1  0  0  0  0  0  0  0  0  0
   -3.3250    0.7943   -3.4222 O   0  0  0  0  0  0  0  0  0  0  0  0
   -1.0849    0.7412   -2.7125 C   0  0  1  0  0  0  0  0  0  0  0  0
   -0.8383    1.0018   -4.0567 O   0  0  0  0  0  0  0  0  0  0  0  0
   -1.1887    1.9782   -1.8828 C   0  0  2  0  0  0  0  0  0  0  0  0
    0.0593    2.1962   -1.1922 N   0  0  0  0  0  0  0  0  0  0  0  0
   -0.0039    3.4072   -0.3568 C   0  0  0  0  0  0  0  0  0  0  0  0
    1.3739    3.7558   -0.1039 N   0  0  0  0  0  0  0  0  0  0  0  0
    2.1816    2.9281   -0.9965 C   0  0  0  0  0  0  0  0  0  0  0  0
    2.4782    1.5867   -0.3284 C   0  0  2  0  0  0  0  0  0  0  0  0
    3.2019    1.7548    0.8982 N   0  0  0  0  0  0  0  0  0  0  0  0
    3.1021    0.7132   -1.2691 N   0  0  0  0  0  0  0  0  0  0  0  0
    3.0156    1.2305   -2.6134 C   0  0  0  0  0  0  0  0  0  0  0  0
    1.6298    1.5839   -2.9328 N   0  0  0  0  0  0  0  0  0  0  0  0
    1.1336    2.6134   -2.0753 C   0  0  0  0  0  0  0  0  0  0  0  0
    1.3364   -0.5350    5.9102 H   0  0  0  0  0  0  0  0  0  0  0  0
    0.0414    0.8810    3.2881 H   0  0  0  0  0  0  0  0  0  0  0  0
    3.6674   -0.3320    4.0840 H   0  0  0  0  0  0  0  0  0  0  0  0
    3.1360    1.6768    4.7644 H   0  0  0  0  0  0  0  0  0  0  0  0
    0.7746   -2.3133    4.6772 H   0  0  0  0  0  0  0  0  0  0  0  0
    2.3036   -3.5651    3.0417 H   0  0  0  0  0  0  0  0  0  0  0  0
   -1.2775   -3.0871    3.6407 H   0  0  0  0  0  0  0  0  0  0  0  0
    0.2473   -0.7169    0.7894 H   0  0  0  0  0  0  0  0  0  0  0  0
    0.7479   -2.5944   -0.6587 H   0  0  0  0  0  0  0  0  0  0  0  0
   -0.1470   -3.9812    0.6992 H   0  0  0  0  0  0  0  0  0  0  0  0
   -2.6850   -0.2248    0.8784 H   0  0  0  0  0  0  0  0  0  0  0  0
   -2.7759   -1.3943   -0.4436 H   0  0  0  0  0  0  0  0  0  0  0  0
   -3.8958    0.6133   -0.9920 H   0  0  0  0  0  0  0  0  0  0  0  0
   -2.4613   -0.9589   -2.6530 H   0  0  0  0  0  0  0  0  0  0  0  0
   -3.0356    0.6813   -4.3444 H   0  0  0  0  0  0  0  0  0  0  0  0
   -0.2931    0.0543   -2.3082 H   0  0  0  0  0  0  0  0  0  0  0  0
   -0.3773    0.2103   -4.4386 H   0  0  0  0  0  0  0  0  0  0  0  0
   -1.3144    2.8301   -2.5945 H   0  0  0  0  0  0  0  0  0  0  0  0
   -0.5742    3.2380    0.5792 H   0  0  0  0  0  0  0  0  0  0  0  0
   -0.5130    4.1922   -0.9673 H   0  0  0  0  0  0  0  0  0  0  0  0
    1.4902    4.7721   -0.3290 H   0  0  0  0  0  0  0  0  0  0  0  0
    3.0660    3.4264   -1.3900 H   0  0  0  0  0  0  0  0  0  0  0  0
    1.4637    1.1557   -0.0873 H   0  0  0  0  0  0  0  0  0  0  0  0
    3.7011    0.8627    1.1017 H   0  0  0  0  0  0  0  0  0  0  0  0
    2.5076    1.8906    1.6680 H   0  0  0  0  0  0  0  0  0  0  0  0
    4.0653    0.4462   -1.0529 H   0  0  0  0  0  0  0  0  0  0  0  0
    3.2957    0.4557   -3.3618 H   0  0  0  0  0  0  0  0  0  0  0  0
    3.6934    2.0760   -2.7845 H   0  0  0  0  0  0  0  0  0  0  0  0
    1.7058    2.0265   -3.8986 H   0  0  0  0  0  0  0  0  0  0  0  0
    0.8298    3.5366   -2.6081 H   0  0  0  0  0  0  0  0  0  0  0  0
  1  2  1  0
  1  3  1  0
  1  4  1  0
  1  8  1  0
  5  6  1  0
  5  7  1  0
  5  8  1  0
  5 12  1  0
  9 10  1  0
  9 11  1  0
  9 12  1  0
  9 13  1  0
 13 14  1  0
 14 15  1  0
 15 16  1  0
 15 17  1  0
 16 21  1  0
 17 18  1  0
 17 19  1  0
 19 20  1  0
 19 21  1  0
 21 22  1  0
 22 23  1  0
 22 31  1  0
 23 24  1  0
 24 25  1  0
 25 26  1  0
 25 31  1  0
 26 27  1  0
 26 28  1  0
 28 29  1  0
 29 30  1  0
 30 31  1  0
  1 32  1  0
  2 33  1  0
  3 34  1  0
  4 35  1  0
  5 36  1  0
  6 37  1  0
  7 38  1  0
  9 39  1  0
 10 40  1  0
 11 41  1  0
 14 42  1  0
 14 43  1  0
 15 44  1  6
 17 45  1  1
 18 46  1  0
 19 47  1  1
 20 48  1  0
 21 49  1  6
 23 50  1  0
 23 51  1  0
 24 52  1  0
 25 53  1  0
 26 54  1  1
 27 55  1  0
 27 56  1  0
 28 57  1  0
 29 58  1  0
 29 59  1  0
 30 60  1  0
 31 61  1  0
M  END
$$$$
ADENYLATE KINASE
     RDKit          3D

 61 63  0  0  0  0  0  0  0  0999 V2000
    1.5747    3.3259   -4.8681 P   0  0  0  0  0  0  0  0  0  0  0  0
    1.0882    4.5618   -5.8880 O   0  0  0  0  0  0  0  0  0  0  0  0
    1.6308    3.8505   -3.2791 O   0  0  0  0  0  0  0  0  0  0  0  0
   -0.0493    2.8645   -5.0352 O   0  0  0  0  0  0  0  0  0  0  0  0
    3.0037    1.0165   -4.7778 P   0  0  0  0  0  0  0  0  0  0  0  0
    4.5179    0.3402   -4.5642 O   0  0  0  0  0  0  0  0  0  0  0  0
    3.8316    2.0958   -3.7406 O   0  0  0  0  0  0  0  0  0  0  0  0
    3.0745    2.6400   -5.1918 O   0  0  0  0  0  0  0  0  0  0  0  0
    1.4005   -0.8263   -3.6517 P   0  0  0  0  0  0  0  0  0  0  0  0
    2.1181   -1.8800   -2.5325 O   0  0  0  0  0  0  0  0  0  0  0  0
    1.6356   -2.4413   -4.1609 O   0  0  0  0  0  0  0  0  0  0  0  0
    1.5557    0.1605   -5.0167 O   0  0  0  0  0  0  0  0  0  0  0  0
    0.1243   -0.2011   -2.7425 O   0  0  0  0  0  0  0  0  0  0  0  0
   -0.4351   -1.1427   -1.8945 C   0  0  0  0  0  0  0  0  0  0  0  0
   -1.5514   -0.4473   -1.1533 C   0  0  1  0  0  0  0  0  0  0  0  0
   -2.2240   -1.2354   -0.2608 O   0  0  0  0  0  0  0  0  0  0  0  0
   -1.0530    0.7692   -0.3993 C   0  0  1  0  0  0  0  0  0  0  0  0
   -0.9255    1.8751   -1.2370 O   0  0  0  0  0  0  0  0  0  0  0  0
   -2.1959    0.9408    0.5827 C   0  0  1  0  0  0  0  0  0  0  0  0
   -3.2215    1.5602   -0.1385 O   0  0  0  0  0  0  0  0  0  0  0  0
   -2.6169   -0.4657    0.8236 C   0  0  2  0  0  0  0  0  0  0  0  0
   -2.0102   -1.0619    1.9882 N   0  0  0  0  0  0  0  0  0  0  0  0
   -2.3275   -0.3409    3.2076 C   0  0  0  0  0  0  0  0  0  0  0  0
   -1.9041   -1.2818    4.2490 N   0  0  0  0  0  0  0  0  0  0  0  0
   -1.9672   -2.6034    3.6679 C   0  0  0  0  0  0  0  0  0  0  0  0
   -0.5709   -3.1333    3.5678 C   0  0  2  0  0  0  0  0  0  0  0  0
    0.4194   -2.0551    3.5770 N   0  0  0  0  0  0  0  0  0  0  0  0
   -0.3216   -3.9050    2.3635 N   0  0  0  0  0  0  0  0  0  0  0  0
   -1.5984   -4.4941    1.9763 C   0  0  0  0  0  0  0  0  0  0  0  0
   -2.3425   -3.3814    1.3682 N   0  0  0  0  0  0  0  0  0  0  0  0
   -2.6012   -2.3440    2.3216 C   0  0  0  0  0  0  0  0  0  0  0  0
    2.8018    3.6891   -5.4344 H   0  0  0  0  0  0  0  0  0  0  0  0
    0.8149    5.3707   -5.3868 H   0  0  0  0  0  0  0  0  0  0  0  0
    0.7556    4.3111   -3.0869 H   0  0  0  0  0  0  0  0  0  0  0  0
   -0.0185    2.0305   -5.5847 H   0  0  0  0  0  0  0  0  0  0  0  0
    4.0796    1.3213   -5.5993 H   0  0  0  0  0  0  0  0  0  0  0  0
    4.4077   -0.4032   -3.9276 H   0  0  0  0  0  0  0  0  0  0  0  0
    3.5828    1.9186   -2.7825 H   0  0  0  0  0  0  0  0  0  0  0  0
    0.6251    0.3171   -3.9001 H   0  0  0  0  0  0  0  0  0  0  0  0
    2.7973   -1.3607   -2.0582 H   0  0  0  0  0  0  0  0  0  0  0  0
    1.1533   -2.5916   -5.0296 H   0  0  0  0  0  0  0  0  0  0  0  0
   -0.9035   -1.9197   -2.5342 H   0  0  0  0  0  0  0  0  0  0  0  0
    0.2970   -1.6127   -1.2225 H   0  0  0  0  0  0  0  0  0  0  0  0
   -2.2869   -0.0923   -1.9038 H   0  0  0  0  0  0  0  0  0  0  0  0
   -0.1373    0.5743    0.1822 H   0  0  0  0  0  0  0  0  0  0  0  0
    0.0204    1.9483   -1.5261 H   0  0  0  0  0  0  0  0  0  0  0  0
   -1.8992    1.5169    1.4688 H   0  0  0  0  0  0  0  0  0  0  0  0
   -3.1797    2.5455   -0.0778 H   0  0  0  0  0  0  0  0  0  0  0  0
   -3.7196   -0.5318    0.9193 H   0  0  0  0  0  0  0  0  0  0  0  0
   -3.4349   -0.3195    3.2818 H   0  0  0  0  0  0  0  0  0  0  0  0
   -1.8414    0.6283    3.3041 H   0  0  0  0  0  0  0  0  0  0  0  0
   -0.9409   -1.0086    4.5628 H   0  0  0  0  0  0  0  0  0  0  0  0
   -2.6220   -3.2531    4.3059 H   0  0  0  0  0  0  0  0  0  0  0  0
   -0.3096   -3.8163    4.4144 H   0  0  0  0  0  0  0  0  0  0  0  0
    0.6998   -1.7588    2.6223 H   0  0  0  0  0  0  0  0  0  0  0  0
    1.2363   -2.3072    4.1965 H   0  0  0  0  0  0  0  0  0  0  0  0
   -0.0205   -3.2226    1.6257 H   0  0  0  0  0  0  0  0  0  0  0  0
   -1.3826   -5.2239    1.1726 H   0  0  0  0  0  0  0  0  0  0  0  0
   -2.1474   -4.9154    2.8234 H   0  0  0  0  0  0  0  0  0  0  0  0
   -3.2488   -3.7257    0.9458 H   0  0  0  0  0  0  0  0  0  0  0  0
   -3.6908   -2.2556    2.4911 H   0  0  0  0  0  0  0  0  0  0  0  0
  1  2  1  0
  1  3  1  0
  1  4  1  0
  1  8  1  0
  5  6  1  0
  5  7  1  0
  5  8  1  0
  5 12  1  0
  9 10  1  0
  9 11  1  0
  9 12  1  0
  9 13  1  0
 13 14  1  0
 14 15  1  0
 15 16  1  0
 15 17  1  0
 16 21  1  0
 17 18  1  0
 17 19  1  0
 19 20  1  0
 19 21  1  0
 21 22  1  0
 22 23  1  0
 22 31  1  0
 23 24  1  0
 24 25  1  0
 25 26  1  0
 25 31  1  0
 26 27  1  0
 26 28  1  0
 28 29  1  0
 29 30  1  0
 30 31  1  0
  1 32  1  0
  2 33  1  0
  3 34  1  0
  4 35  1  0
  5 36  1  0
  6 37  1  0
  7 38  1  0
  9 39  1  0
 10 40  1  0
 11 41  1  0
 14 42  1  0
 14 43  1  0
 15 44  1  6
 17 45  1  1
 18 46  1  0
 19 47  1  1
 20 48  1  0
 21 49  1  1
 23 50  1  0
 23 51  1  0
 24 52  1  0
 25 53  1  0
 26 54  1  1
 27 55  1  0
 27 56  1  0
 28 57  1  0
 29 58  1  0
 29 59  1  0
 30 60  1  0
 31 61  1  0
M  END
$$$$
ADENYLATE KINASE
     RDKit          3D

 61 63  0  0  0  0  0  0  0  0999 V2000
    0.3190   -5.7928    5.4361 P   0  0  0  0  0  0  0  0  0  0  0  0
    1.7526   -6.5088    4.9000 O   0  0  0  0  0  0  0  0  0  0  0  0
    0.6852   -4.4926    6.4057 O   0  0  0  0  0  0  0  0  0  0  0  0
   -1.1204   -5.5375    4.6437 O   0  0  0  0  0  0  0  0  0  0  0  0
    0.6265   -3.9525    3.3453 P   0  0  0  0  0  0  0  0  0  0  0  0
    1.8765   -2.9178    2.8687 O   0  0  0  0  0  0  0  0  0  0  0  0
   -0.4563   -2.9059    4.0998 O   0  0  0  0  0  0  0  0  0  0  0  0
   -0.1019   -4.2751    4.8203 O   0  0  0  0  0  0  0  0  0  0  0  0
   -0.3863   -3.7009    0.7609 P   0  0  0  0  0  0  0  0  0  0  0  0
    0.2372   -4.1028   -0.7574 O   0  0  0  0  0  0  0  0  0  0  0  0
   -1.7302   -4.7018    0.9958 O   0  0  0  0  0  0  0  0  0  0  0  0
    0.7745   -4.4745    1.7345 O   0  0  0  0  0  0  0  0  0  0  0  0
   -1.1514   -2.2743    0.2852 O   0  0  0  0  0  0  0  0  0  0  0  0
   -0.2948   -1.5358   -0.5195 C   0  0  0  0  0  0  0  0  0  0  0  0
   -0.9132   -0.2414   -0.9809 C   0  0  1  0  0  0  0  0  0  0  0  0
   -0.0313    0.5048   -1.8005 O   0  0  0  0  0  0  0  0  0  0  0  0
   -2.1229   -0.4521   -1.8449 C   0  0  1  0  0  0  0  0  0  0  0  0
   -3.3207   -0.3412   -1.1354 O   0  0  0  0  0  0  0  0  0  0  0  0
   -2.0463    0.7868   -2.7530 C   0  0  1  0  0  0  0  0  0  0  0  0
   -3.2441    1.4548   -2.7875 O   0  0  0  0  0  0  0  0  0  0  0  0
   -0.9252    1.5401   -2.1357 C   0  0  2  0  0  0  0  0  0  0  0  0
   -0.3517    2.6034   -2.8234 N   0  0  0  0  0  0  0  0  0  0  0  0
    0.7403    3.2995   -2.2420 C   0  0  0  0  0  0  0  0  0  0  0  0
    0.9201    4.5274   -2.9906 N   0  0  0  0  0  0  0  0  0  0  0  0
   -0.1889    4.6229   -3.9220 C   0  0  0  0  0  0  0  0  0  0  0  0
   -0.8775    5.9646   -3.7996 C   0  0  2  0  0  0  0  0  0  0  0  0
    0.1384    6.9824   -3.9928 N   0  0  0  0  0  0  0  0  0  0  0  0
   -1.4404    6.1521   -2.4782 N   0  0  0  0  0  0  0  0  0  0  0  0
   -2.1218    4.9737   -2.0003 C   0  0  0  0  0  0  0  0  0  0  0  0
   -2.2924    3.9332   -2.9578 N   0  0  0  0  0  0  0  0  0  0  0  0
   -1.1216    3.4657   -3.6162 C   0  0  0  0  0  0  0  0  0  0  0  0
   -0.5657   -4.7065    5.7180 H   0  0  0  0  0  0  0  0  0  0  0  0
    2.4231   -5.8009    4.8069 H   0  0  0  0  0  0  0  0  0  0  0  0
    1.6649   -4.5845    6.6373 H   0  0  0  0  0  0  0  0  0  0  0  0
   -1.3462   -6.4161    4.1965 H   0  0  0  0  0  0  0  0  0  0  0  0
    1.9320   -4.0802    3.8308 H   0  0  0  0  0  0  0  0  0  0  0  0
    1.4480   -2.0714    2.5664 H   0  0  0  0  0  0  0  0  0  0  0  0
   -0.6569   -2.1399    3.4854 H   0  0  0  0  0  0  0  0  0  0  0  0
    0.9245   -4.2253    0.6633 H   0  0  0  0  0  0  0  0  0  0  0  0
   -0.4606   -4.5414   -1.3011 H   0  0  0  0  0  0  0  0  0  0  0  0
   -1.5587   -5.5685    0.5384 H   0  0  0  0  0  0  0  0  0  0  0  0
    0.6319   -1.3696    0.0273 H   0  0  0  0  0  0  0  0  0  0  0  0
   -0.0520   -2.1393   -1.4296 H   0  0  0  0  0  0  0  0  0  0  0  0
   -1.1496    0.3976   -0.1198 H   0  0  0  0  0  0  0  0  0  0  0  0
   -2.1024   -1.3898   -2.4000 H   0  0  0  0  0  0  0  0  0  0  0  0
   -3.5729   -1.2255   -0.7492 H   0  0  0  0  0  0  0  0  0  0  0  0
   -1.7439    0.3783   -3.7485 H   0  0  0  0  0  0  0  0  0  0  0  0
   -3.8141    1.0243   -3.4765 H   0  0  0  0  0  0  0  0  0  0  0  0
   -1.2682    1.9151   -1.1260 H   0  0  0  0  0  0  0  0  0  0  0  0
    1.6922    2.7308   -2.2387 H   0  0  0  0  0  0  0  0  0  0  0  0
    0.5128    3.5409   -1.1860 H   0  0  0  0  0  0  0  0  0  0  0  0
    1.8460    4.5162   -3.5034 H   0  0  0  0  0  0  0  0  0  0  0  0
    0.2204    4.5685   -4.9508 H   0  0  0  0  0  0  0  0  0  0  0  0
   -1.6255    6.0891   -4.6027 H   0  0  0  0  0  0  0  0  0  0  0  0
    0.4464    7.4393   -3.1059 H   0  0  0  0  0  0  0  0  0  0  0  0
    0.9572    6.5970   -4.5354 H   0  0  0  0  0  0  0  0  0  0  0  0
   -2.1134    6.9470   -2.5446 H   0  0  0  0  0  0  0  0  0  0  0  0
   -1.6128    4.6274   -1.0818 H   0  0  0  0  0  0  0  0  0  0  0  0
   -3.1536    5.2731   -1.6571 H   0  0  0  0  0  0  0  0  0  0  0  0
   -3.1122    4.0716   -3.5910 H   0  0  0  0  0  0  0  0  0  0  0  0
   -1.4234    3.0697   -4.6071 H   0  0  0  0  0  0  0  0  0  0  0  0
  1  2  1  0
  1  3  1  0
  1  4  1  0
  1  8  1  0
  5  6  1  0
  5  7  1  0
  5  8  1  0
  5 12  1  0
  9 10  1  0
  9 11  1  0
  9 12  1  0
  9 13  1  0
 13 14  1  0
 14 15  1  0
 15 16  1  0
 15 17  1  0
 16 21  1  0
 17 18  1  0
 17 19  1  0
 19 20  1  0
 19 21  1  0
 21 22  1  0
 22 23  1  0
 22 31  1  0
 23 24  1  0
 24 25  1  0
 25 26  1  0
 25 31  1  0
 26 27  1  0
 26 28  1  0
 28 29  1  0
 29 30  1  0
 30 31  1  0
  1 32  1  0
  2 33  1  0
  3 34  1  0
  4 35  1  0
  5 36  1  0
  6 37  1  0
  7 38  1  0
  9 39  1  0
 10 40  1  0
 11 41  1  0
 14 42  1  0
 14 43  1  0
 15 44  1  1
 17 45  1  6
 18 46  1  0
 19 47  1  6
 20 48  1  0
 21 49  1  1
 23 50  1  0
 23 51  1  0
 24 52  1  0
 25 53  1  0
 26 54  1  6
 27 55  1  0
 27 56  1  0
 28 57  1  0
 29 58  1  0
 29 59  1  0
 30 60  1  0
 31 61  1  0
M  END
$$$$
ADENYLATE KINASE
     RDKit          3D

 61 63  0  0  0  0  0  0  0  0999 V2000
   -1.1393   -6.9260    0.4592 P   0  0  0  0  0  0  0  0  0  0  0  0
    0.4246   -6.3776    0.1008 O   0  0  0  0  0  0  0  0  0  0  0  0
   -2.3274   -7.7291   -0.3987 O   0  0  0  0  0  0  0  0  0  0  0  0
   -0.7027   -6.8125    2.0938 O   0  0  0  0  0  0  0  0  0  0  0  0
   -1.9612   -4.3720   -0.1701 P   0  0  0  0  0  0  0  0  0  0  0  0
   -3.3678   -4.5595    0.7835 O   0  0  0  0  0  0  0  0  0  0  0  0
   -0.4400   -4.3273    0.5971 O   0  0  0  0  0  0  0  0  0  0  0  0
   -2.0995   -6.0128   -0.6105 O   0  0  0  0  0  0  0  0  0  0  0  0
   -3.2736   -2.0090   -0.0596 P   0  0  0  0  0  0  0  0  0  0  0  0
   -4.2317   -2.4538    1.2538 O   0  0  0  0  0  0  0  0  0  0  0  0
   -3.7504   -0.4915   -0.5473 O   0  0  0  0  0  0  0  0  0  0  0  0
   -3.4137   -3.6301   -0.5575 O   0  0  0  0  0  0  0  0  0  0  0  0
   -2.1919   -0.9662   -0.8758 O   0  0  0  0  0  0  0  0  0  0  0  0
   -0.9023   -1.4271   -0.6839 C   0  0  0  0  0  0  0  0  0  0  0  0
    0.0301   -0.3491   -1.2238 C   0  0  1  0  0  0  0  0  0  0  0  0
   -0.1585    0.8464   -0.5378 O   0  0  0  0  0  0  0  0  0  0  0  0
    1.4347   -0.7330   -0.8187 C   0  0  1  0  0  0  0  0  0  0  0  0
    2.0107   -1.6980   -1.6089 O   0  0  0  0  0  0  0  0  0  0  0  0
    2.1266    0.6332   -0.9679 C   0  0  1  0  0  0  0  0  0  0  0  0
    2.4978    0.7672   -2.3015 O   0  0  0  0  0  0  0  0  0  0  0  0
    0.9991    1.5635   -0.5956 C   0  0  2  0  0  0  0  0  0  0  0  0
    1.3091    2.1210    0.6867 N   0  0  0  0  0  0  0  0  0  0  0  0
    0.2091    2.9169    1.2272 C   0  0  0  0  0  0  0  0  0  0  0  0
    0.8527    3.5020    2.4161 N   0  0  0  0  0  0  0  0  0  0  0  0
    2.2669    3.4685    2.1729 C   0  0  0  0  0  0  0  0  0  0  0  0
    2.8607    2.2086    2.7695 C   0  0  2  0  0  0  0  0  0  0  0  0
    2.7132    2.1050    4.1876 N   0  0  0  0  0  0  0  0  0  0  0  0
    4.2411    2.1616    2.4110 N   0  0  0  0  0  0  0  0  0  0  0  0
    4.6068    2.5932    1.1209 C   0  0  0  0  0  0  0  0  0  0  0  0
    3.5728    2.8676    0.1804 N   0  0  0  0  0  0  0  0  0  0  0  0
    2.3074    3.1787    0.6639 C   0  0  0  0  0  0  0  0  0  0  0  0
   -0.0596   -7.5829    1.0522 H   0  0  0  0  0  0  0  0  0  0  0  0
    0.5342   -6.2343   -0.8727 H   0  0  0  0  0  0  0  0  0  0  0  0
   -2.1378   -8.7061   -0.3675 H   0  0  0  0  0  0  0  0  0  0  0  0
   -1.2976   -6.1769    2.5969 H   0  0  0  0  0  0  0  0  0  0  0  0
   -1.8578   -5.0327   -1.3853 H   0  0  0  0  0  0  0  0  0  0  0  0
   -3.0501   -4.7892    1.6928 H   0  0  0  0  0  0  0  0  0  0  0  0
   -0.6267   -4.0722    1.5288 H   0  0  0  0  0  0  0  0  0  0  0  0
   -3.5822   -2.1439   -1.4082 H   0  0  0  0  0  0  0  0  0  0  0  0
   -4.6539   -1.6136    1.6031 H   0  0  0  0  0  0  0  0  0  0  0  0
   -4.6803   -0.3243   -0.2176 H   0  0  0  0  0  0  0  0  0  0  0  0
   -0.6694   -1.5979    0.3751 H   0  0  0  0  0  0  0  0  0  0  0  0
   -0.7057   -2.3285   -1.3229 H   0  0  0  0  0  0  0  0  0  0  0  0
   -0.0752   -0.2471   -2.3086 H   0  0  0  0  0  0  0  0  0  0  0  0
    1.4361   -0.9781    0.2613 H   0  0  0  0  0  0  0  0  0  0  0  0
    2.9829   -1.4715   -1.6846 H   0  0  0  0  0  0  0  0  0  0  0  0
    2.9914    0.6577   -0.3053 H   0  0  0  0  0  0  0  0  0  0  0  0
    1.9796    1.5091   -2.6912 H   0  0  0  0  0  0  0  0  0  0  0  0
    0.8959    2.3641   -1.3819 H   0  0  0  0  0  0  0  0  0  0  0  0
   -0.6613    2.3100    1.4640 H   0  0  0  0  0  0  0  0  0  0  0  0
    0.0016    3.7786    0.5593 H   0  0  0  0  0  0  0  0  0  0  0  0
    0.5500    4.4922    2.5415 H   0  0  0  0  0  0  0  0  0  0  0  0
    2.8171    4.3706    2.4477 H   0  0  0  0  0  0  0  0  0  0  0  0
    2.3165    1.3588    2.3037 H   0  0  0  0  0  0  0  0  0  0  0  0
    2.7967    1.0899    4.4481 H   0  0  0  0  0  0  0  0  0  0  0  0
    3.4003    2.6946    4.7085 H   0  0  0  0  0  0  0  0  0  0  0  0
    4.5443    1.1600    2.5383 H   0  0  0  0  0  0  0  0  0  0  0  0
    5.3195    1.8858    0.6152 H   0  0  0  0  0  0  0  0  0  0  0  0
    5.2128    3.5322    1.2291 H   0  0  0  0  0  0  0  0  0  0  0  0
    3.8662    3.6050   -0.5261 H   0  0  0  0  0  0  0  0  0  0  0  0
    1.8527    4.0382    0.1619 H   0  0  0  0  0  0  0  0  0  0  0  0
  1  2  1  0
  1  3  1  0
  1  4  1  0
  1  8  1  0
  5  6  1  0
  5  7  1  0
  5  8  1  0
  5 12  1  0
  9 10  1  0
  9 11  1  0
  9 12  1  0
  9 13  1  0
 13 14  1  0
 14 15  1  0
 15 16  1  0
 15 17  1  0
 16 21  1  0
 17 18  1  0
 17 19  1  0
 19 20  1  0
 19 21  1  0
 21 22  1  0
 22 23  1  0
 22 31  1  0
 23 24  1  0
 24 25  1  0
 25 26  1  0
 25 31  1  0
 26 27  1  0
 26 28  1  0
 28 29  1  0
 29 30  1  0
 30 31  1  0
  1 32  1  0
  2 33  1  0
  3 34  1  0
  4 35  1  0
  5 36  1  0
  6 37  1  0
  7 38  1  0
  9 39  1  0
 10 40  1  0
 11 41  1  0
 14 42  1  0
 14 43  1  0
 15 44  1  6
 17 45  1  1
 18 46  1  0
 19 47  1  1
 20 48  1  0
 21 49  1  6
 23 50  1  0
 23 51  1  0
 24 52  1  0
 25 53  1  0
 26 54  1  6
 27 55  1  0
 27 56  1  0
 28 57  1  0
 29 58  1  0
 29 59  1  0
 30 60  1  0
 31 61  1  0
M  END
$$$$
ADENYLATE KINASE
     RDKit          3D

 61 63  0  0  0  0  0  0  0  0999 V2000
    5.7023    0.4495   -0.2646 P   0  0  0  0  0  0  0  0  0  0  0  0
    5.8943    1.9348    0.4939 O   0  0  0  0  0  0  0  0  0  0  0  0
    4.9680    0.8860   -1.7084 O   0  0  0  0  0  0  0  0  0  0  0  0
    5.9970   -1.2061   -0.0254 O   0  0  0  0  0  0  0  0  0  0  0  0
    3.3222   -0.2509    0.9682 P   0  0  0  0  0  0  0  0  0  0  0  0
    3.0556    1.3602    0.4799 O   0  0  0  0  0  0  0  0  0  0  0  0
    3.5716   -0.0274    2.6201 O   0  0  0  0  0  0  0  0  0  0  0  0
    4.0810    0.0118   -0.5298 O   0  0  0  0  0  0  0  0  0  0  0  0
    2.0508   -2.4459   -0.1209 P   0  0  0  0  0  0  0  0  0  0  0  0
    1.8613   -1.4375   -1.4607 O   0  0  0  0  0  0  0  0  0  0  0  0
    2.7463   -3.7850   -0.8414 O   0  0  0  0  0  0  0  0  0  0  0  0
    3.1802   -1.2257   -0.4290 O   0  0  0  0  0  0  0  0  0  0  0  0
    0.5199   -1.9582    0.3325 O   0  0  0  0  0  0  0  0  0  0  0  0
    0.3225   -2.0280    1.6989 C   0  0  0  0  0  0  0  0  0  0  0  0
   -1.1004   -1.5657    2.0418 C   0  0  1  0  0  0  0  0  0  0  0  0
   -1.3007   -0.2717    1.6335 O   0  0  0  0  0  0  0  0  0  0  0  0
   -2.0621   -2.4487    1.3063 C   0  0  1  0  0  0  0  0  0  0  0  0
   -2.5193   -3.5121    2.0912 O   0  0  0  0  0  0  0  0  0  0  0  0
   -3.2113   -1.4961    1.0512 C   0  0  1  0  0  0  0  0  0  0  0  0
   -4.2903   -1.7430    1.8788 O   0  0  0  0  0  0  0  0  0  0  0  0
   -2.6169   -0.1042    1.2831 C   0  0  2  0  0  0  0  0  0  0  0  0
   -2.8472    0.6549    0.0973 N   0  0  0  0  0  0  0  0  0  0  0  0
   -2.2555    0.1092   -1.0818 C   0  0  0  0  0  0  0  0  0  0  0  0
   -1.5159    1.1818   -1.7497 N   0  0  0  0  0  0  0  0  0  0  0  0
   -1.2502    2.1633   -0.7419 C   0  0  0  0  0  0  0  0  0  0  0  0
   -1.3511    3.5891   -1.2909 C   0  0  2  0  0  0  0  0  0  0  0  0
   -0.0947    4.0619   -1.7872 N   0  0  0  0  0  0  0  0  0  0  0  0
   -1.9037    4.3660   -0.2087 N   0  0  0  0  0  0  0  0  0  0  0  0
   -1.4741    3.8522    1.0999 C   0  0  0  0  0  0  0  0  0  0  0  0
   -2.1391    2.5823    1.4043 N   0  0  0  0  0  0  0  0  0  0  0  0
   -2.4952    2.0223    0.1418 C   0  0  0  0  0  0  0  0  0  0  0  0
    6.8622   -0.1265   -0.7758 H   0  0  0  0  0  0  0  0  0  0  0  0
    6.4907    1.8135    1.2867 H   0  0  0  0  0  0  0  0  0  0  0  0
    5.4714    1.5352   -2.2263 H   0  0  0  0  0  0  0  0  0  0  0  0
    5.6614   -1.4703    0.8470 H   0  0  0  0  0  0  0  0  0  0  0  0
    1.9928    0.1203    0.6611 H   0  0  0  0  0  0  0  0  0  0  0  0
    3.5857    1.9899    1.0125 H   0  0  0  0  0  0  0  0  0  0  0  0
    4.2393   -0.6957    2.9113 H   0  0  0  0  0  0  0  0  0  0  0  0
    2.0616   -3.6555    0.6209 H   0  0  0  0  0  0  0  0  0  0  0  0
    1.2874   -1.9514   -2.1062 H   0  0  0  0  0  0  0  0  0  0  0  0
    2.5488   -3.8822   -1.8076 H   0  0  0  0  0  0  0  0  0  0  0  0
    0.4655   -3.0826    2.0040 H   0  0  0  0  0  0  0  0  0  0  0  0
    1.0837   -1.4415    2.2405 H   0  0  0  0  0  0  0  0  0  0  0  0
   -1.1665   -1.6944    3.1610 H   0  0  0  0  0  0  0  0  0  0  0  0
   -1.5977   -2.8140    0.3676 H   0  0  0  0  0  0  0  0  0  0  0  0
   -3.2651   -3.9144    1.5733 H   0  0  0  0  0  0  0  0  0  0  0  0
   -3.5297   -1.6450   -0.0028 H   0  0  0  0  0  0  0  0  0  0  0  0
   -5.1531   -1.4687    1.4787 H   0  0  0  0  0  0  0  0  0  0  0  0
   -3.1210    0.4034    2.1292 H   0  0  0  0  0  0  0  0  0  0  0  0
   -1.6395   -0.7662   -0.8831 H   0  0  0  0  0  0  0  0  0  0  0  0
   -3.1044   -0.2251   -1.7477 H   0  0  0  0  0  0  0  0  0  0  0  0
   -0.6561    0.7600   -2.1674 H   0  0  0  0  0  0  0  0  0  0  0  0
   -0.3336    1.9906   -0.1638 H   0  0  0  0  0  0  0  0  0  0  0  0
   -2.0536    3.5751   -2.1573 H   0  0  0  0  0  0  0  0  0  0  0  0
    0.1566    3.5022   -2.6084 H   0  0  0  0  0  0  0  0  0  0  0  0
    0.6421    4.1767   -1.0818 H   0  0  0  0  0  0  0  0  0  0  0  0
   -1.6985    5.3684   -0.2650 H   0  0  0  0  0  0  0  0  0  0  0  0
   -0.3586    3.7526    1.1229 H   0  0  0  0  0  0  0  0  0  0  0  0
   -1.7523    4.6433    1.8310 H   0  0  0  0  0  0  0  0  0  0  0  0
   -3.0212    2.8402    1.9062 H   0  0  0  0  0  0  0  0  0  0  0  0
   -3.3338    2.6251   -0.2897 H   0  0  0  0  0  0  0  0  0  0  0  0
  1  2  1  0
  1  3  1  0
  1  4  1  0
  1  8  1  0
  5  6  1  0
  5  7  1  0
  5  8  1  0
  5 12  1  0
  9 10  1  0
  9 11  1  0
  9 12  1  0
  9 13  1  0
 13 14  1  0
 14 15  1  0
 15 16  1  0
 15 17  1  0
 16 21  1  0
 17 18  1  0
 17 19  1  0
 19 20  1  0
 19 21  1  0
 21 22  1  0
 22 23  1  0
 22 31  1  0
 23 24  1  0
 24 25  1  0
 25 26  1  0
 25 31  1  0
 26 27  1  0
 26 28  1  0
 28 29  1  0
 29 30  1  0
 30 31  1  0
  1 32  1  0
  2 33  1  0
  3 34  1  0
  4 35  1  0
  5 36  1  0
  6 37  1  0
  7 38  1  0
  9 39  1  0
 10 40  1  0
 11 41  1  0
 14 42  1  0
 14 43  1  0
 15 44  1  1
 17 45  1  6
 18 46  1  0
 19 47  1  6
 20 48  1  0
 21 49  1  1
 23 50  1  0
 23 51  1  0
 24 52  1  0
 25 53  1  0
 26 54  1  6
 27 55  1  0
 27 56  1  0
 28 57  1  0
 29 58  1  0
 29 59  1  0
 30 60  1  0
 31 61  1  0
M  END
$$$$
ADENYLATE KINASE
     RDKit          3D

 61 63  0  0  0  0  0  0  0  0999 V2000
    3.8920   -0.1731   -5.8745 P   0  0  0  0  0  0  0  0  0  0  0  0
    3.2938   -1.7169   -6.1027 O   0  0  0  0  0  0  0  0  0  0  0  0
    5.2901    0.5505   -6.4779 O   0  0  0  0  0  0  0  0  0  0  0  0
    5.4108   -0.5564   -5.2423 O   0  0  0  0  0  0  0  0  0  0  0  0
    1.2462    0.0670   -5.3177 P   0  0  0  0  0  0  0  0  0  0  0  0
    0.3322    1.2460   -6.1444 O   0  0  0  0  0  0  0  0  0  0  0  0
    1.2105   -1.1950   -6.4096 O   0  0  0  0  0  0  0  0  0  0  0  0
    2.6774    0.9232   -5.4204 O   0  0  0  0  0  0  0  0  0  0  0  0
   -0.3460    0.8600   -3.2629 P   0  0  0  0  0  0  0  0  0  0  0  0
    0.2007    2.2846   -3.9528 O   0  0  0  0  0  0  0  0  0  0  0  0
   -0.6097   -0.7860   -3.5155 O   0  0  0  0  0  0  0  0  0  0  0  0
    1.0373   -0.0349   -3.6221 O   0  0  0  0  0  0  0  0  0  0  0  0
   -0.8953    0.3558   -1.7773 O   0  0  0  0  0  0  0  0  0  0  0  0
   -1.0753    1.3446   -0.8391 C   0  0  0  0  0  0  0  0  0  0  0  0
   -1.6598    0.8453    0.4421 C   0  0  1  0  0  0  0  0  0  0  0  0
   -0.8387   -0.1129    1.0287 O   0  0  0  0  0  0  0  0  0  0  0  0
   -1.7752    1.9433    1.4573 C   0  0  1  0  0  0  0  0  0  0  0  0
   -3.0212    2.5820    1.3309 O   0  0  0  0  0  0  0  0  0  0  0  0
   -1.7591    1.1418    2.7539 C   0  0  1  0  0  0  0  0  0  0  0  0
   -3.0649    0.9232    3.1712 O   0  0  0  0  0  0  0  0  0  0  0  0
   -1.1903   -0.2019    2.3504 C   0  0  2  0  0  0  0  0  0  0  0  0
   -0.0665   -0.4583    3.2422 N   0  0  0  0  0  0  0  0  0  0  0  0
   -0.4932   -0.4965    4.6245 C   0  0  0  0  0  0  0  0  0  0  0  0
   -0.4851   -1.9234    4.9785 N   0  0  0  0  0  0  0  0  0  0  0  0
    0.6075   -2.4833    4.1993 C   0  0  0  0  0  0  0  0  0  0  0  0
    1.8495   -2.3901    5.0283 C   0  0  2  0  0  0  0  0  0  0  0  0
    1.6648   -1.5629    6.2178 N   0  0  0  0  0  0  0  0  0  0  0  0
    3.0118   -1.9251    4.3247 N   0  0  0  0  0  0  0  0  0  0  0  0
    2.8503   -2.3638    2.9353 C   0  0  0  0  0  0  0  0  0  0  0  0
    1.8945   -1.4656    2.3465 N   0  0  0  0  0  0  0  0  0  0  0  0
    0.5931   -1.6868    2.9486 C   0  0  0  0  0  0  0  0  0  0  0  0
    3.4433   -0.6703   -7.1273 H   0  0  0  0  0  0  0  0  0  0  0  0
    3.5418   -2.2981   -5.3405 H   0  0  0  0  0  0  0  0  0  0  0  0
    4.9702    1.2337   -7.1326 H   0  0  0  0  0  0  0  0  0  0  0  0
    5.3399   -1.2638   -4.5467 H   0  0  0  0  0  0  0  0  0  0  0  0
    1.6359    1.4234   -5.3529 H   0  0  0  0  0  0  0  0  0  0  0  0
   -0.4865    0.8259   -6.5042 H   0  0  0  0  0  0  0  0  0  0  0  0
    0.3912   -1.1864   -6.9252 H   0  0  0  0  0  0  0  0  0  0  0  0
    0.8183    1.0052   -2.5254 H   0  0  0  0  0  0  0  0  0  0  0  0
   -0.5621    2.6306   -4.4837 H   0  0  0  0  0  0  0  0  0  0  0  0
   -1.4907   -0.8438   -3.9807 H   0  0  0  0  0  0  0  0  0  0  0  0
   -1.6333    2.2300   -1.2020 H   0  0  0  0  0  0  0  0  0  0  0  0
   -0.0392    1.7218   -0.5830 H   0  0  0  0  0  0  0  0  0  0  0  0
   -2.6883    0.4868    0.2379 H   0  0  0  0  0  0  0  0  0  0  0  0
   -0.9392    2.6448    1.3889 H   0  0  0  0  0  0  0  0  0  0  0  0
   -3.0132    3.0318    0.4400 H   0  0  0  0  0  0  0  0  0  0  0  0
   -1.1561    1.6682    3.5016 H   0  0  0  0  0  0  0  0  0  0  0  0
   -3.6561    0.9510    2.3796 H   0  0  0  0  0  0  0  0  0  0  0  0
   -1.8931   -1.0334    2.5004 H   0  0  0  0  0  0  0  0  0  0  0  0
    0.2637    0.0650    5.2073 H   0  0  0  0  0  0  0  0  0  0  0  0
   -1.4695   -0.0276    4.7586 H   0  0  0  0  0  0  0  0  0  0  0  0
   -0.3174   -2.0306    6.0121 H   0  0  0  0  0  0  0  0  0  0  0  0
    0.3010   -3.5511    4.0166 H   0  0  0  0  0  0  0  0  0  0  0  0
    2.0373   -3.4236    5.4450 H   0  0  0  0  0  0  0  0  0  0  0  0
    2.5276   -0.9951    6.3970 H   0  0  0  0  0  0  0  0  0  0  0  0
    1.4504   -2.1193    7.0705 H   0  0  0  0  0  0  0  0  0  0  0  0
    3.8574   -2.4420    4.6842 H   0  0  0  0  0  0  0  0  0  0  0  0
    3.8300   -2.3218    2.4415 H   0  0  0  0  0  0  0  0  0  0  0  0
    2.3918   -3.3820    2.8875 H   0  0  0  0  0  0  0  0  0  0  0  0
    1.8891   -1.5675    1.3210 H   0  0  0  0  0  0  0  0  0  0  0  0
    0.0230   -2.2901    2.1853 H   0  0  0  0  0  0  0  0  0  0  0  0
  1  2  1  0
  1  3  1  0
  1  4  1  0
  1  8  1  0
  5  6  1  0
  5  7  1  0
  5  8  1  0
  5 12  1  0
  9 10  1  0
  9 11  1  0
  9 12  1  0
  9 13  1  0
 13 14  1  0
 14 15  1  0
 15 16  1  0
 15 17  1  0
 16 21  1  0
 17 18  1  0
 17 19  1  0
 19 20  1  0
 19 21  1  0
 21 22  1  0
 22 23  1  0
 22 31  1  0
 23 24  1  0
 24 25  1  0
 25 26  1  0
 25 31  1  0
 26 27  1  0
 26 28  1  0
 28 29  1  0
 29 30  1  0
 30 31  1  0
  1 32  1  0
  2 33  1  0
  3 34  1  0
  4 35  1  0
  5 36  1  0
  6 37  1  0
  7 38  1  0
  9 39  1  0
 10 40  1  0
 11 41  1  0
 14 42  1  0
 14 43  1  0
 15 44  1  6
 17 45  1  1
 18 46  1  0
 19 47  1  1
 20 48  1  0
 21 49  1  6
 23 50  1  0
 23 51  1  0
 24 52  1  0
 25 53  1  0
 26 54  1  1
 27 55  1  0
 27 56  1  0
 28 57  1  0
 29 58  1  0
 29 59  1  0
 30 60  1  0
 31 61  1  0
M  END
$$$$
ADENYLATE KINASE
     RDKit          3D

 61 63  0  0  0  0  0  0  0  0999 V2000
    3.3298    1.5461    0.9729 P   0  0  0  0  0  0  0  0  0  0  0  0
    4.0754    3.0632    0.8281 O   0  0  0  0  0  0  0  0  0  0  0  0
    4.0235    0.8803    2.3703 O   0  0  0  0  0  0  0  0  0  0  0  0
    1.7053    1.8066    1.3248 O   0  0  0  0  0  0  0  0  0  0  0  0
    2.4272   -0.1846   -0.9974 P   0  0  0  0  0  0  0  0  0  0  0  0
    3.9363   -0.2854   -1.7809 O   0  0  0  0  0  0  0  0  0  0  0  0
    1.2202   -0.1980   -2.1969 O   0  0  0  0  0  0  0  0  0  0  0  0
    2.8208    1.4197   -0.6226 O   0  0  0  0  0  0  0  0  0  0  0  0
    2.8970   -2.0911    0.8955 P   0  0  0  0  0  0  0  0  0  0  0  0
    4.3706   -2.7883    1.3993 O   0  0  0  0  0  0  0  0  0  0  0  0
    2.1167   -1.9379    2.4017 O   0  0  0  0  0  0  0  0  0  0  0  0
    3.6189   -0.9202   -0.0713 O   0  0  0  0  0  0  0  0  0  0  0  0
    1.2561   -2.3562    1.1667 O   0  0  0  0  0  0  0  0  0  0  0  0
    0.6700   -3.0730    0.1200 C   0  0  0  0  0  0  0  0  0  0  0  0
   -0.7974   -3.2496    0.4823 C   0  0  1  0  0  0  0  0  0  0  0  0
   -1.4451   -2.0520    0.6364 O   0  0  0  0  0  0  0  0  0  0  0  0
   -1.5553   -4.0952   -0.4878 C   0  0  1  0  0  0  0  0  0  0  0  0
   -2.4710   -4.9254    0.1442 O   0  0  0  0  0  0  0  0  0  0  0  0
   -2.2538   -3.0349   -1.3254 C   0  0  1  0  0  0  0  0  0  0  0  0
   -3.5368   -3.4832   -1.6496 O   0  0  0  0  0  0  0  0  0  0  0  0
   -2.2362   -1.8113   -0.4806 C   0  0  2  0  0  0  0  0  0  0  0  0
   -1.7161   -0.6477   -1.1490 N   0  0  0  0  0  0  0  0  0  0  0  0
   -2.4766   -0.2879   -2.3266 C   0  0  0  0  0  0  0  0  0  0  0  0
   -1.9579    1.0372   -2.6179 N   0  0  0  0  0  0  0  0  0  0  0  0
   -1.9569    1.6428   -1.2920 C   0  0  0  0  0  0  0  0  0  0  0  0
   -3.1329    2.5405   -1.0986 C   0  0  2  0  0  0  0  0  0  0  0  0
   -2.7453    3.8644   -0.6382 N   0  0  0  0  0  0  0  0  0  0  0  0
   -4.1722    1.9691   -0.2782 N   0  0  0  0  0  0  0  0  0  0  0  0
   -3.6599    1.4109    0.9474 C   0  0  0  0  0  0  0  0  0  0  0  0
   -2.7310    0.3640    0.6964 N   0  0  0  0  0  0  0  0  0  0  0  0
   -1.7801    0.5427   -0.3231 C   0  0  0  0  0  0  0  0  0  0  0  0
    3.4932    2.1240   -0.2886 H   0  0  0  0  0  0  0  0  0  0  0  0
    3.8803    3.6375    1.5970 H   0  0  0  0  0  0  0  0  0  0  0  0
    4.9190    0.5274    2.1012 H   0  0  0  0  0  0  0  0  0  0  0  0
    1.4903    2.7758    1.1742 H   0  0  0  0  0  0  0  0  0  0  0  0
    1.8929    1.0787   -1.2331 H   0  0  0  0  0  0  0  0  0  0  0  0
    3.7953   -0.8063   -2.6193 H   0  0  0  0  0  0  0  0  0  0  0  0
    1.4737   -0.8947   -2.8528 H   0  0  0  0  0  0  0  0  0  0  0  0
    3.2044   -3.4513    0.6478 H   0  0  0  0  0  0  0  0  0  0  0  0
    4.6551   -2.2793    2.1980 H   0  0  0  0  0  0  0  0  0  0  0  0
    2.7452   -1.5136    3.0668 H   0  0  0  0  0  0  0  0  0  0  0  0
    1.1753   -4.0594    0.0868 H   0  0  0  0  0  0  0  0  0  0  0  0
    0.8066   -2.6007   -0.8669 H   0  0  0  0  0  0  0  0  0  0  0  0
   -0.7823   -3.8102    1.4597 H   0  0  0  0  0  0  0  0  0  0  0  0
   -0.8326   -4.6761   -1.0889 H   0  0  0  0  0  0  0  0  0  0  0  0
   -2.4982   -5.8307   -0.2083 H   0  0  0  0  0  0  0  0  0  0  0  0
   -1.7063   -2.9368   -2.2796 H   0  0  0  0  0  0  0  0  0  0  0  0
   -4.1595   -3.1220   -0.9670 H   0  0  0  0  0  0  0  0  0  0  0  0
   -3.2746   -1.6635   -0.1073 H   0  0  0  0  0  0  0  0  0  0  0  0
   -2.2242   -0.9219   -3.2019 H   0  0  0  0  0  0  0  0  0  0  0  0
   -3.5659   -0.2652   -2.1191 H   0  0  0  0  0  0  0  0  0  0  0  0
   -2.6651    1.5838   -3.1911 H   0  0  0  0  0  0  0  0  0  0  0  0
   -1.0521    2.2869   -1.2876 H   0  0  0  0  0  0  0  0  0  0  0  0
   -3.6016    2.7103   -2.1036 H   0  0  0  0  0  0  0  0  0  0  0  0
   -1.9098    4.1356   -1.2386 H   0  0  0  0  0  0  0  0  0  0  0  0
   -3.4819    4.5764   -0.9088 H   0  0  0  0  0  0  0  0  0  0  0  0
   -4.8830    2.6940   -0.1022 H   0  0  0  0  0  0  0  0  0  0  0  0
   -3.2963    2.1654    1.6641 H   0  0  0  0  0  0  0  0  0  0  0  0
   -4.5475    0.9355    1.4527 H   0  0  0  0  0  0  0  0  0  0  0  0
   -2.3066    0.0933    1.6127 H   0  0  0  0  0  0  0  0  0  0  0  0
   -0.7639    0.5909    0.1691 H   0  0  0  0  0  0  0  0  0  0  0  0
  1  2  1  0
  1  3  1  0
  1  4  1  0
  1  8  1  0
  5  6  1  0
  5  7  1  0
  5  8  1  0
  5 12  1  0
  9 10  1  0
  9 11  1  0
  9 12  1  0
  9 13  1  0
 13 14  1  0
 14 15  1  0
 15 16  1  0
 15 17  1  0
 16 21  1  0
 17 18  1  0
 17 19  1  0
 19 20  1  0
 19 21  1  0
 21 22  1  0
 22 23  1  0
 22 31  1  0
 23 24  1  0
 24 25  1  0
 25 26  1  0
 25 31  1  0
 26 27  1  0
 26 28  1  0
 28 29  1  0
 29 30  1  0
 30 31  1  0
  1 32  1  0
  2 33  1  0
  3 34  1  0
  4 35  1  0
  5 36  1  0
  6 37  1  0
  7 38  1  0
  9 39  1  0
 10 40  1  0
 11 41  1  0
 14 42  1  0
 14 43  1  0
 15 44  1  1
 17 45  1  6
 18 46  1  0
 19 47  1  6
 20 48  1  0
 21 49  1  1
 23 50  1  0
 23 51  1  0
 24 52  1  0
 25 53  1  0
 26 54  1  6
 27 55  1  0
 27 56  1  0
 28 57  1  0
 29 58  1  0
 29 59  1  0
 30 60  1  0
 31 61  1  0
M  END
$$$$
ADENYLATE KINASE
     RDKit          3D

 61 63  0  0  0  0  0  0  0  0999 V2000
   -0.4884    2.0320   -6.2296 P   0  0  0  0  0  0  0  0  0  0  0  0
   -1.1099    3.5801   -5.8888 O   0  0  0  0  0  0  0  0  0  0  0  0
   -1.1944    1.8674   -7.7506 O   0  0  0  0  0  0  0  0  0  0  0  0
   -1.6063    0.9796   -5.5496 O   0  0  0  0  0  0  0  0  0  0  0  0
    1.8617    2.7347   -4.9975 P   0  0  0  0  0  0  0  0  0  0  0  0
    3.0591    1.6939   -4.4109 O   0  0  0  0  0  0  0  0  0  0  0  0
    3.2153    3.0919   -5.9212 O   0  0  0  0  0  0  0  0  0  0  0  0
    1.0614    1.5173   -5.8342 O   0  0  0  0  0  0  0  0  0  0  0  0
    1.1332    2.5297   -2.3131 P   0  0  0  0  0  0  0  0  0  0  0  0
    2.0211    1.4912   -1.3263 O   0  0  0  0  0  0  0  0  0  0  0  0
    0.4770    4.0730   -2.1504 O   0  0  0  0  0  0  0  0  0  0  0  0
    1.0011    3.4594   -3.7381 O   0  0  0  0  0  0  0  0  0  0  0  0
    0.3034    1.4151   -1.3482 O   0  0  0  0  0  0  0  0  0  0  0  0
   -0.3134    2.0994   -0.3045 C   0  0  0  0  0  0  0  0  0  0  0  0
   -1.0910    1.1414    0.5857 C   0  0  1  0  0  0  0  0  0  0  0  0
   -0.2749    0.1629    1.1578 O   0  0  0  0  0  0  0  0  0  0  0  0
   -1.6720    1.9411    1.7152 C   0  0  1  0  0  0  0  0  0  0  0  0
   -3.0518    1.7595    1.7212 O   0  0  0  0  0  0  0  0  0  0  0  0
   -1.1251    1.1807    2.9352 C   0  0  1  0  0  0  0  0  0  0  0  0
   -1.9743    1.2582    4.0012 O   0  0  0  0  0  0  0  0  0  0  0  0
   -0.9842   -0.1819    2.3036 C   0  0  2  0  0  0  0  0  0  0  0  0
   -0.4154   -1.1889    3.0875 N   0  0  0  0  0  0  0  0  0  0  0  0
   -1.2691   -1.5119    4.1964 C   0  0  0  0  0  0  0  0  0  0  0  0
   -1.4938   -2.9773    4.1189 N   0  0  0  0  0  0  0  0  0  0  0  0
   -1.3065   -3.2376    2.7100 C   0  0  0  0  0  0  0  0  0  0  0  0
   -1.0156   -4.6122    2.2950 C   0  0  2  0  0  0  0  0  0  0  0  0
   -1.5387   -5.6851    3.0542 N   0  0  0  0  0  0  0  0  0  0  0  0
    0.4344   -4.7389    2.0802 N   0  0  0  0  0  0  0  0  0  0  0  0
    0.9077   -3.8488    1.0547 C   0  0  0  0  0  0  0  0  0  0  0  0
    0.3232   -2.4992    1.1631 N   0  0  0  0  0  0  0  0  0  0  0  0
   -0.0395   -2.4107    2.5451 C   0  0  0  0  0  0  0  0  0  0  0  0
   -1.2240    2.3208   -5.0665 H   0  0  0  0  0  0  0  0  0  0  0  0
   -0.8357    4.1580   -6.6711 H   0  0  0  0  0  0  0  0  0  0  0  0
   -1.0547    0.9291   -8.0457 H   0  0  0  0  0  0  0  0  0  0  0  0
   -1.5673    0.0564   -5.9083 H   0  0  0  0  0  0  0  0  0  0  0  0
    1.9369    1.3862   -5.3627 H   0  0  0  0  0  0  0  0  0  0  0  0
    3.4302    2.0022   -3.5467 H   0  0  0  0  0  0  0  0  0  0  0  0
    2.9076    3.6107   -6.7133 H   0  0  0  0  0  0  0  0  0  0  0  0
    0.0874    1.7622   -2.8456 H   0  0  0  0  0  0  0  0  0  0  0  0
    2.8943    1.9426   -1.1347 H   0  0  0  0  0  0  0  0  0  0  0  0
    0.6090    4.4699   -1.2613 H   0  0  0  0  0  0  0  0  0  0  0  0
    0.4306    2.6762    0.2747 H   0  0  0  0  0  0  0  0  0  0  0  0
   -1.0579    2.8209   -0.6902 H   0  0  0  0  0  0  0  0  0  0  0  0
   -1.8733    0.6176    0.0009 H   0  0  0  0  0  0  0  0  0  0  0  0
   -1.3744    2.9918    1.7332 H   0  0  0  0  0  0  0  0  0  0  0  0
   -3.4125    1.5805    0.8088 H   0  0  0  0  0  0  0  0  0  0  0  0
   -0.1326    1.6539    3.1198 H   0  0  0  0  0  0  0  0  0  0  0  0
   -1.4496    1.4579    4.8178 H   0  0  0  0  0  0  0  0  0  0  0  0
   -2.0232   -0.4279    1.9236 H   0  0  0  0  0  0  0  0  0  0  0  0
   -0.7413   -1.2278    5.1115 H   0  0  0  0  0  0  0  0  0  0  0  0
   -2.2546   -0.9964    4.1871 H   0  0  0  0  0  0  0  0  0  0  0  0
   -0.7326   -3.3705    4.7074 H   0  0  0  0  0  0  0  0  0  0  0  0
   -2.1668   -2.8120    2.1627 H   0  0  0  0  0  0  0  0  0  0  0  0
   -1.4320   -4.7394    1.2505 H   0  0  0  0  0  0  0  0  0  0  0  0
   -2.3985   -6.1248    2.6220 H   0  0  0  0  0  0  0  0  0  0  0  0
   -1.7941   -5.4923    4.0419 H   0  0  0  0  0  0  0  0  0  0  0  0
    0.6048   -5.7188    1.7106 H   0  0  0  0  0  0  0  0  0  0  0  0
    0.8349   -4.2308    0.0300 H   0  0  0  0  0  0  0  0  0  0  0  0
    2.0049   -3.6836    1.2676 H   0  0  0  0  0  0  0  0  0  0  0  0
    0.9626   -1.7821    0.8104 H   0  0  0  0  0  0  0  0  0  0  0  0
    0.7098   -2.8946    3.2121 H   0  0  0  0  0  0  0  0  0  0  0  0
  1  2  1  0
  1  3  1  0
  1  4  1  0
  1  8  1  0
  5  6  1  0
  5  7  1  0
  5  8  1  0
  5 12  1  0
  9 10  1  0
  9 11  1  0
  9 12  1  0
  9 13  1  0
 13 14  1  0
 14 15  1  0
 15 16  1  0
 15 17  1  0
 16 21  1  0
 17 18  1  0
 17 19  1  0
 19 20  1  0
 19 21  1  0
 21 22  1  0
 22 23  1  0
 22 31  1  0
 23 24  1  0
 24 25  1  0
 25 26  1  0
 25 31  1  0
 26 27  1  0
 26 28  1  0
 28 29  1  0
 29 30  1  0
 30 31  1  0
  1 32  1  0
  2 33  1  0
  3 34  1  0
  4 35  1  0
  5 36  1  0
  6 37  1  0
  7 38  1  0
  9 39  1  0
 10 40  1  0
 11 41  1  0
 14 42  1  0
 14 43  1  0
 15 44  1  6
 17 45  1  1
 18 46  1  0
 19 47  1  1
 20 48  1  0
 21 49  1  6
 23 50  1  0
 23 51  1  0
 24 52  1  0
 25 53  1  0
 26 54  1  6
 27 55  1  0
 27 56  1  0
 28 57  1  0
 29 58  1  0
 29 59  1  0
 30 60  1  0
 31 61  1  0
M  END
$$$$
ADENYLATE KINASE
     RDKit          3D

 61 63  0  0  0  0  0  0  0  0999 V2000
    4.1668    2.4848   -1.0711 P   0  0  0  0  0  0  0  0  0  0  0  0
    4.8723    1.1909   -1.9092 O   0  0  0  0  0  0  0  0  0  0  0  0
    5.5647    3.1330   -1.8000 O   0  0  0  0  0  0  0  0  0  0  0  0
    2.4920    2.3918   -1.3660 O   0  0  0  0  0  0  0  0  0  0  0  0
    3.4092    2.8414    1.5922 P   0  0  0  0  0  0  0  0  0  0  0  0
    3.2259    4.2743    0.7353 O   0  0  0  0  0  0  0  0  0  0  0  0
    4.7768    3.3532    2.4685 O   0  0  0  0  0  0  0  0  0  0  0  0
    4.2083    1.8426    0.4750 O   0  0  0  0  0  0  0  0  0  0  0  0
    1.9613    1.7459    3.6725 P   0  0  0  0  0  0  0  0  0  0  0  0
    0.4951    1.8880    4.4843 O   0  0  0  0  0  0  0  0  0  0  0  0
    1.6784    3.3843    3.5963 O   0  0  0  0  0  0  0  0  0  0  0  0
    2.7933    1.4079    2.2248 O   0  0  0  0  0  0  0  0  0  0  0  0
    1.4573    0.4971    2.6144 O   0  0  0  0  0  0  0  0  0  0  0  0
    0.9470   -0.4822    3.4278 C   0  0  0  0  0  0  0  0  0  0  0  0
    0.4271   -1.6746    2.6753 C   0  0  1  0  0  0  0  0  0  0  0  0
   -0.5968   -1.3511    1.7955 O   0  0  0  0  0  0  0  0  0  0  0  0
    1.4530   -2.2413    1.7156 C   0  0  1  0  0  0  0  0  0  0  0  0
    2.4900   -2.8977    2.3468 O   0  0  0  0  0  0  0  0  0  0  0  0
    0.5496   -3.1872    0.9412 C   0  0  1  0  0  0  0  0  0  0  0  0
    0.5343   -4.3716    1.7076 O   0  0  0  0  0  0  0  0  0  0  0  0
   -0.7804   -2.5198    1.0583 C   0  0  2  0  0  0  0  0  0  0  0  0
   -1.3981   -2.3221   -0.2156 N   0  0  0  0  0  0  0  0  0  0  0  0
   -2.6913   -1.6741   -0.1237 C   0  0  0  0  0  0  0  0  0  0  0  0
   -2.6382   -0.4500   -0.8649 N   0  0  0  0  0  0  0  0  0  0  0  0
   -1.5542   -0.6090   -1.8152 C   0  0  0  0  0  0  0  0  0  0  0  0
   -2.1240   -1.1701   -3.0939 C   0  0  2  0  0  0  0  0  0  0  0  0
   -3.1524   -2.1402   -2.8725 N   0  0  0  0  0  0  0  0  0  0  0  0
   -1.1375   -1.7518   -3.9563 N   0  0  0  0  0  0  0  0  0  0  0  0
    0.1830   -1.6700   -3.3640 C   0  0  0  0  0  0  0  0  0  0  0  0
    0.1220   -2.3799   -2.0927 N   0  0  0  0  0  0  0  0  0  0  0  0
   -0.6062   -1.5696   -1.1375 C   0  0  0  0  0  0  0  0  0  0  0  0
    4.6239    1.3568   -0.3666 H   0  0  0  0  0  0  0  0  0  0  0  0
    4.4036    0.9741   -2.7507 H   0  0  0  0  0  0  0  0  0  0  0  0
    5.5515    4.1011   -1.7147 H   0  0  0  0  0  0  0  0  0  0  0  0
    2.3285    2.5442   -2.3305 H   0  0  0  0  0  0  0  0  0  0  0  0
    3.1446    3.9591    2.4009 H   0  0  0  0  0  0  0  0  0  0  0  0
    2.4643    4.2252    0.0840 H   0  0  0  0  0  0  0  0  0  0  0  0
    5.4941    3.6402    1.8426 H   0  0  0  0  0  0  0  0  0  0  0  0
    2.6523    2.1615    4.8269 H   0  0  0  0  0  0  0  0  0  0  0  0
   -0.3018    1.8057    3.9280 H   0  0  0  0  0  0  0  0  0  0  0  0
    1.1656    3.6927    2.8074 H   0  0  0  0  0  0  0  0  0  0  0  0
    1.8048   -0.8800    4.0374 H   0  0  0  0  0  0  0  0  0  0  0  0
    0.1974   -0.1565    4.1629 H   0  0  0  0  0  0  0  0  0  0  0  0
    0.0963   -2.4864    3.3516 H   0  0  0  0  0  0  0  0  0  0  0  0
    1.8193   -1.4149    1.0544 H   0  0  0  0  0  0  0  0  0  0  0  0
    3.2825   -2.3025    2.3382 H   0  0  0  0  0  0  0  0  0  0  0  0
    0.9113   -3.3711   -0.0780 H   0  0  0  0  0  0  0  0  0  0  0  0
    1.4477   -4.7255    1.8636 H   0  0  0  0  0  0  0  0  0  0  0  0
   -1.4883   -3.1479    1.6730 H   0  0  0  0  0  0  0  0  0  0  0  0
   -2.9977   -1.4944    0.9308 H   0  0  0  0  0  0  0  0  0  0  0  0
   -3.4296   -2.4001   -0.5217 H   0  0  0  0  0  0  0  0  0  0  0  0
   -2.5688    0.4073   -0.2867 H   0  0  0  0  0  0  0  0  0  0  0  0
   -1.0991    0.3899   -1.9661 H   0  0  0  0  0  0  0  0  0  0  0  0
   -2.5919   -0.3014   -3.6300 H   0  0  0  0  0  0  0  0  0  0  0  0
   -2.8359   -3.1337   -2.9444 H   0  0  0  0  0  0  0  0  0  0  0  0
   -4.0172   -2.0151   -3.4240 H   0  0  0  0  0  0  0  0  0  0  0  0
   -1.1782   -1.3584   -4.9041 H   0  0  0  0  0  0  0  0  0  0  0  0
    0.9496   -2.0931   -4.0121 H   0  0  0  0  0  0  0  0  0  0  0  0
    0.3682   -0.6044   -3.1025 H   0  0  0  0  0  0  0  0  0  0  0  0
   -0.3107   -3.3158   -2.2520 H   0  0  0  0  0  0  0  0  0  0  0  0
    0.1594   -0.9476   -0.6174 H   0  0  0  0  0  0  0  0  0  0  0  0
  1  2  1  0
  1  3  1  0
  1  4  1  0
  1  8  1  0
  5  6  1  0
  5  7  1  0
  5  8  1  0
  5 12  1  0
  9 10  1  0
  9 11  1  0
  9 12  1  0
  9 13  1  0
 13 14  1  0
 14 15  1  0
 15 16  1  0
 15 17  1  0
 16 21  1  0
 17 18  1  0
 17 19  1  0
 19 20  1  0
 19 21  1  0
 21 22  1  0
 22 23  1  0
 22 31  1  0
 23 24  1  0
 24 25  1  0
 25 26  1  0
 25 31  1  0
 26 27  1  0
 26 28  1  0
 28 29  1  0
 29 30  1  0
 30 31  1  0
  1 32  1  0
  2 33  1  0
  3 34  1  0
  4 35  1  0
  5 36  1  0
  6 37  1  0
  7 38  1  0
  9 39  1  0
 10 40  1  0
 11 41  1  0
 14 42  1  0
 14 43  1  0
 15 44  1  1
 17 45  1  6
 18 46  1  0
 19 47  1  6
 20 48  1  0
 21 49  1  1
 23 50  1  0
 23 51  1  0
 24 52  1  0
 25 53  1  0
 26 54  1  6
 27 55  1  0
 27 56  1  0
 28 57  1  0
 29 58  1  0
 29 59  1  0
 30 60  1  0
 31 61  1  0
M  END
$$$$
ADENYLATE KINASE
     RDKit          3D

 61 63  0  0  0  0  0  0  0  0999 V2000
    1.2191    0.5454   -3.5960 P   0  0  0  0  0  0  0  0  0  0  0  0
    1.4590   -0.0227   -5.1739 O   0  0  0  0  0  0  0  0  0  0  0  0
    0.4849   -0.7326   -2.7290 O   0  0  0  0  0  0  0  0  0  0  0  0
   -0.2483    1.4159   -3.6645 O   0  0  0  0  0  0  0  0  0  0  0  0
    3.5418    1.4700   -2.4834 P   0  0  0  0  0  0  0  0  0  0  0  0
    2.6025    2.7674   -2.9606 O   0  0  0  0  0  0  0  0  0  0  0  0
    4.6266    2.7478   -2.5172 O   0  0  0  0  0  0  0  0  0  0  0  0
    2.6854    1.3157   -3.9065 O   0  0  0  0  0  0  0  0  0  0  0  0
    4.4574    0.0974   -0.2965 P   0  0  0  0  0  0  0  0  0  0  0  0
    4.6637   -1.5559   -0.1348 O   0  0  0  0  0  0  0  0  0  0  0  0
    5.5754    0.3981    0.9431 O   0  0  0  0  0  0  0  0  0  0  0  0
    3.2719    0.1453   -1.4738 O   0  0  0  0  0  0  0  0  0  0  0  0
    2.7994    0.3201   -0.1610 O   0  0  0  0  0  0  0  0  0  0  0  0
    2.5857    1.4214    0.7000 C   0  0  0  0  0  0  0  0  0  0  0  0
    1.0760    1.5534    0.7676 C   0  0  1  0  0  0  0  0  0  0  0  0
    0.5093    0.3878    1.2747 O   0  0  0  0  0  0  0  0  0  0  0  0
    0.6112    2.5912    1.7291 C   0  0  1  0  0  0  0  0  0  0  0  0
    0.3550    3.8387    1.1217 O   0  0  0  0  0  0  0  0  0  0  0  0
   -0.7353    2.0262    2.1626 C   0  0  1  0  0  0  0  0  0  0  0  0
   -1.7886    2.8374    1.7374 O   0  0  0  0  0  0  0  0  0  0  0  0
   -0.8313    0.7516    1.3817 C   0  0  2  0  0  0  0  0  0  0  0  0
   -1.5791   -0.2712    2.0863 N   0  0  0  0  0  0  0  0  0  0  0  0
   -2.9325    0.1722    2.3591 C   0  0  0  0  0  0  0  0  0  0  0  0
   -3.6580   -1.0467    2.6442 N   0  0  0  0  0  0  0  0  0  0  0  0
   -2.8633   -2.1502    2.0858 C   0  0  0  0  0  0  0  0  0  0  0  0
   -2.2205   -2.8487    3.2531 C   0  0  2  0  0  0  0  0  0  0  0  0
   -2.2400   -2.0671    4.4759 N   0  0  0  0  0  0  0  0  0  0  0  0
   -0.8615   -3.2365    2.9982 N   0  0  0  0  0  0  0  0  0  0  0  0
   -0.7065   -3.4647    1.5817 C   0  0  0  0  0  0  0  0  0  0  0  0
   -0.6852   -2.1768    0.9255 N   0  0  0  0  0  0  0  0  0  0  0  0
   -1.8534   -1.4119    1.2329 C   0  0  0  0  0  0  0  0  0  0  0  0
    0.3701    0.7571   -2.5029 H   0  0  0  0  0  0  0  0  0  0  0  0
    0.8201   -0.7495   -5.3295 H   0  0  0  0  0  0  0  0  0  0  0  0
    0.7624   -1.5834   -3.1788 H   0  0  0  0  0  0  0  0  0  0  0  0
   -0.3638    1.8693   -4.5517 H   0  0  0  0  0  0  0  0  0  0  0  0
    3.9993    0.9982   -3.7232 H   0  0  0  0  0  0  0  0  0  0  0  0
    2.1063    3.1960   -2.2339 H   0  0  0  0  0  0  0  0  0  0  0  0
    4.7494    3.0476   -1.5905 H   0  0  0  0  0  0  0  0  0  0  0  0
    4.8216   -0.5726   -1.4306 H   0  0  0  0  0  0  0  0  0  0  0  0
    3.9416   -1.9831    0.3779 H   0  0  0  0  0  0  0  0  0  0  0  0
    5.2064    1.2733    1.2876 H   0  0  0  0  0  0  0  0  0  0  0  0
    2.9362    1.2254    1.7211 H   0  0  0  0  0  0  0  0  0  0  0  0
    3.0255    2.3351    0.2691 H   0  0  0  0  0  0  0  0  0  0  0  0
    0.6138    1.7518   -0.2191 H   0  0  0  0  0  0  0  0  0  0  0  0
    1.2439    2.6864    2.6331 H   0  0  0  0  0  0  0  0  0  0  0  0
    0.1939    3.6349    0.1719 H   0  0  0  0  0  0  0  0  0  0  0  0
   -0.8115    1.9068    3.2528 H   0  0  0  0  0  0  0  0  0  0  0  0
   -1.7520    2.9760    0.7566 H   0  0  0  0  0  0  0  0  0  0  0  0
   -1.2340    0.9201    0.3717 H   0  0  0  0  0  0  0  0  0  0  0  0
   -3.3378    0.5605    1.4021 H   0  0  0  0  0  0  0  0  0  0  0  0
   -2.9829    0.9229    3.1703 H   0  0  0  0  0  0  0  0  0  0  0  0
   -4.6161   -1.0032    2.2277 H   0  0  0  0  0  0  0  0  0  0  0  0
   -3.5301   -2.8158    1.4969 H   0  0  0  0  0  0  0  0  0  0  0  0
   -2.7869   -3.7823    3.4676 H   0  0  0  0  0  0  0  0  0  0  0  0
   -2.0603   -1.0532    4.3136 H   0  0  0  0  0  0  0  0  0  0  0  0
   -1.4386   -2.3877    5.0925 H   0  0  0  0  0  0  0  0  0  0  0  0
   -0.2510   -2.4199    3.2425 H   0  0  0  0  0  0  0  0  0  0  0  0
    0.2232   -4.0208    1.3848 H   0  0  0  0  0  0  0  0  0  0  0  0
   -1.5419   -4.0736    1.2011 H   0  0  0  0  0  0  0  0  0  0  0  0
   -0.7219   -2.3710   -0.1190 H   0  0  0  0  0  0  0  0  0  0  0  0
   -2.4045   -1.0437    0.3421 H   0  0  0  0  0  0  0  0  0  0  0  0
  1  2  1  0
  1  3  1  0
  1  4  1  0
  1  8  1  0
  5  6  1  0
  5  7  1  0
  5  8  1  0
  5 12  1  0
  9 10  1  0
  9 11  1  0
  9 12  1  0
  9 13  1  0
 13 14  1  0
 14 15  1  0
 15 16  1  0
 15 17  1  0
 16 21  1  0
 17 18  1  0
 17 19  1  0
 19 20  1  0
 19 21  1  0
 21 22  1  0
 22 23  1  0
 22 31  1  0
 23 24  1  0
 24 25  1  0
 25 26  1  0
 25 31  1  0
 26 27  1  0
 26 28  1  0
 28 29  1  0
 29 30  1  0
 30 31  1  0
  1 32  1  0
  2 33  1  0
  3 34  1  0
  4 35  1  0
  5 36  1  0
  6 37  1  0
  7 38  1  0
  9 39  1  0
 10 40  1  0
 11 41  1  0
 14 42  1  0
 14 43  1  0
 15 44  1  6
 17 45  1  1
 18 46  1  0
 19 47  1  1
 20 48  1  0
 21 49  1  6
 23 50  1  0
 23 51  1  0
 24 52  1  0
 25 53  1  0
 26 54  1  1
 27 55  1  0
 27 56  1  0
 28 57  1  0
 29 58  1  0
 29 59  1  0
 30 60  1  0
 31 61  1  0
M  END
$$$$
ADENYLATE KINASE
     RDKit          3D

 61 63  0  0  0  0  0  0  0  0999 V2000
    1.9349   -5.3416   -1.1931 P   0  0  0  0  0  0  0  0  0  0  0  0
    0.4797   -4.8022   -1.8623 O   0  0  0  0  0  0  0  0  0  0  0  0
    2.7207   -5.4159   -2.6775 O   0  0  0  0  0  0  0  0  0  0  0  0
    2.8860   -3.9605   -1.2196 O   0  0  0  0  0  0  0  0  0  0  0  0
    1.3573   -3.8706    0.9923 P   0  0  0  0  0  0  0  0  0  0  0  0
    1.7172   -2.5712   -0.0141 O   0  0  0  0  0  0  0  0  0  0  0  0
   -0.1331   -4.5209    0.5327 O   0  0  0  0  0  0  0  0  0  0  0  0
    1.9488   -5.3719    0.4901 O   0  0  0  0  0  0  0  0  0  0  0  0
    1.8671   -2.6156    3.3603 P   0  0  0  0  0  0  0  0  0  0  0  0
    0.8838   -3.2373    4.5757 O   0  0  0  0  0  0  0  0  0  0  0  0
    3.1088   -1.9158    4.2924 O   0  0  0  0  0  0  0  0  0  0  0  0
    1.0340   -3.8885    2.6501 O   0  0  0  0  0  0  0  0  0  0  0  0
    1.1272   -1.3138    2.6133 O   0  0  0  0  0  0  0  0  0  0  0  0
    1.7503   -0.0934    2.8612 C   0  0  0  0  0  0  0  0  0  0  0  0
    1.0620    1.0479    2.1581 C   0  0  1  0  0  0  0  0  0  0  0  0
    1.0422    0.8883    0.7800 O   0  0  0  0  0  0  0  0  0  0  0  0
   -0.4156    1.0328    2.4886 C   0  0  1  0  0  0  0  0  0  0  0  0
   -0.6411    1.6040    3.7396 O   0  0  0  0  0  0  0  0  0  0  0  0
   -0.9717    1.8882    1.3676 C   0  0  1  0  0  0  0  0  0  0  0  0
   -1.1578    3.1704    1.9237 O   0  0  0  0  0  0  0  0  0  0  0  0
    0.1194    1.8763    0.3781 C   0  0  2  0  0  0  0  0  0  0  0  0
   -0.1612    1.6255   -0.9686 N   0  0  0  0  0  0  0  0  0  0  0  0
    1.0903    1.6706   -1.7250 C   0  0  0  0  0  0  0  0  0  0  0  0
    0.9239    2.7209   -2.7155 N   0  0  0  0  0  0  0  0  0  0  0  0
   -0.4938    2.6192   -3.0027 C   0  0  0  0  0  0  0  0  0  0  0  0
   -0.9941    3.9183   -3.5635 C   0  0  2  0  0  0  0  0  0  0  0  0
   -0.2781    5.0801   -3.0897 N   0  0  0  0  0  0  0  0  0  0  0  0
   -2.4259    4.0641   -3.3906 N   0  0  0  0  0  0  0  0  0  0  0  0
   -2.8922    3.7323   -2.0814 C   0  0  0  0  0  0  0  0  0  0  0  0
   -1.8050    3.4171   -1.1412 N   0  0  0  0  0  0  0  0  0  0  0  0
   -1.1568    2.2780   -1.6718 C   0  0  0  0  0  0  0  0  0  0  0  0
    1.8256   -4.3317   -2.1956 H   0  0  0  0  0  0  0  0  0  0  0  0
   -0.2553   -5.4909   -1.7795 H   0  0  0  0  0  0  0  0  0  0  0  0
    3.4885   -6.0389   -2.6336 H   0  0  0  0  0  0  0  0  0  0  0  0
    3.7661   -4.0799   -0.7618 H   0  0  0  0  0  0  0  0  0  0  0  0
    0.5470   -4.4974    1.9672 H   0  0  0  0  0  0  0  0  0  0  0  0
    0.8875   -2.0520   -0.1163 H   0  0  0  0  0  0  0  0  0  0  0  0
   -0.6643   -3.8899   -0.0402 H   0  0  0  0  0  0  0  0  0  0  0  0
    0.5525   -2.2012    3.5515 H   0  0  0  0  0  0  0  0  0  0  0  0
    1.4785   -3.7368    5.1899 H   0  0  0  0  0  0  0  0  0  0  0  0
    3.9111   -1.9945    3.7165 H   0  0  0  0  0  0  0  0  0  0  0  0
    1.6989    0.1144    3.9520 H   0  0  0  0  0  0  0  0  0  0  0  0
    2.8032   -0.1522    2.5763 H   0  0  0  0  0  0  0  0  0  0  0  0
    1.5354    1.9859    2.4630 H   0  0  0  0  0  0  0  0  0  0  0  0
   -0.8152    0.0027    2.4346 H   0  0  0  0  0  0  0  0  0  0  0  0
   -1.6161    1.6184    3.9043 H   0  0  0  0  0  0  0  0  0  0  0  0
   -1.9233    1.4216    1.0684 H   0  0  0  0  0  0  0  0  0  0  0  0
   -0.4130    3.3444    2.5843 H   0  0  0  0  0  0  0  0  0  0  0  0
    0.6971    2.8448    0.4422 H   0  0  0  0  0  0  0  0  0  0  0  0
    1.9348    2.0085   -1.0706 H   0  0  0  0  0  0  0  0  0  0  0  0
    1.3400    0.6879   -2.1746 H   0  0  0  0  0  0  0  0  0  0  0  0
    1.4667    2.4254   -3.5673 H   0  0  0  0  0  0  0  0  0  0  0  0
   -0.6308    1.8066   -3.7515 H   0  0  0  0  0  0  0  0  0  0  0  0
   -0.8156    3.8668   -4.6662 H   0  0  0  0  0  0  0  0  0  0  0  0
   -0.8532    5.8949   -2.8637 H   0  0  0  0  0  0  0  0  0  0  0  0
    0.5311    4.8874   -2.4880 H   0  0  0  0  0  0  0  0  0  0  0  0
   -2.7144    4.9827   -3.7512 H   0  0  0  0  0  0  0  0  0  0  0  0
   -3.5180    2.8018   -2.2027 H   0  0  0  0  0  0  0  0  0  0  0  0
   -3.5589    4.5173   -1.7210 H   0  0  0  0  0  0  0  0  0  0  0  0
   -1.2485    4.2659   -0.9933 H   0  0  0  0  0  0  0  0  0  0  0  0
   -1.9679    1.5413   -1.9376 H   0  0  0  0  0  0  0  0  0  0  0  0
  1  2  1  0
  1  3  1  0
  1  4  1  0
  1  8  1  0
  5  6  1  0
  5  7  1  0
  5  8  1  0
  5 12  1  0
  9 10  1  0
  9 11  1  0
  9 12  1  0
  9 13  1  0
 13 14  1  0
 14 15  1  0
 15 16  1  0
 15 17  1  0
 16 21  1  0
 17 18  1  0
 17 19  1  0
 19 20  1  0
 19 21  1  0
 21 22  1  0
 22 23  1  0
 22 31  1  0
 23 24  1  0
 24 25  1  0
 25 26  1  0
 25 31  1  0
 26 27  1  0
 26 28  1  0
 28 29  1  0
 29 30  1  0
 30 31  1  0
  1 32  1  0
  2 33  1  0
  3 34  1  0
  4 35  1  0
  5 36  1  0
  6 37  1  0
  7 38  1  0
  9 39  1  0
 10 40  1  0
 11 41  1  0
 14 42  1  0
 14 43  1  0
 15 44  1  6
 17 45  1  1
 18 46  1  0
 19 47  1  6
 20 48  1  0
 21 49  1  6
 23 50  1  0
 23 51  1  0
 24 52  1  0
 25 53  1  0
 26 54  1  6
 27 55  1  0
 27 56  1  0
 28 57  1  0
 29 58  1  0
 29 59  1  0
 30 60  1  0
 31 61  1  0
M  END
$$$$
ADENYLATE KINASE
     RDKit          3D

 61 63  0  0  0  0  0  0  0  0999 V2000
    2.0277    0.7671   -3.8067 P   0  0  0  0  0  0  0  0  0  0  0  0
    1.6268   -0.8697   -3.6191 O   0  0  0  0  0  0  0  0  0  0  0  0
    3.3834    0.5296   -4.7884 O   0  0  0  0  0  0  0  0  0  0  0  0
    2.5098    1.9208   -2.6733 O   0  0  0  0  0  0  0  0  0  0  0  0
   -0.1157    2.4254   -3.9308 P   0  0  0  0  0  0  0  0  0  0  0  0
   -0.5236    0.9900   -4.7579 O   0  0  0  0  0  0  0  0  0  0  0  0
   -0.8320    3.4763   -5.0672 O   0  0  0  0  0  0  0  0  0  0  0  0
    1.4956    2.2701   -4.3851 O   0  0  0  0  0  0  0  0  0  0  0  0
   -1.5797    2.9676   -1.6416 P   0  0  0  0  0  0  0  0  0  0  0  0
   -0.3091    4.0085   -1.2196 O   0  0  0  0  0  0  0  0  0  0  0  0
   -2.7924    4.1036   -1.4674 O   0  0  0  0  0  0  0  0  0  0  0  0
   -0.4726    3.5833   -2.7495 O   0  0  0  0  0  0  0  0  0  0  0  0
   -2.1057    1.5720   -0.8459 O   0  0  0  0  0  0  0  0  0  0  0  0
   -1.0100    0.7313   -0.5401 C   0  0  0  0  0  0  0  0  0  0  0  0
   -1.6236   -0.4634    0.1607 C   0  0  1  0  0  0  0  0  0  0  0  0
   -0.7021   -1.4171    0.5479 O   0  0  0  0  0  0  0  0  0  0  0  0
   -2.4166   -0.0463    1.3709 C   0  0  1  0  0  0  0  0  0  0  0  0
   -3.7016   -0.5927    1.2744 O   0  0  0  0  0  0  0  0  0  0  0  0
   -1.6758   -0.8365    2.4637 C   0  0  1  0  0  0  0  0  0  0  0  0
   -2.4895   -1.1267    3.5360 O   0  0  0  0  0  0  0  0  0  0  0  0
   -1.2962   -2.0210    1.6277 C   0  0  2  0  0  0  0  0  0  0  0  0
   -0.5281   -3.0132    2.2796 N   0  0  0  0  0  0  0  0  0  0  0  0
   -0.2515   -4.0832    1.3247 C   0  0  0  0  0  0  0  0  0  0  0  0
    1.1759   -4.2274    1.2394 N   0  0  0  0  0  0  0  0  0  0  0  0
    1.7367   -3.0030    1.7772 C   0  0  0  0  0  0  0  0  0  0  0  0
    3.1283   -3.1700    2.2937 C   0  0  2  0  0  0  0  0  0  0  0  0
    3.8725   -3.9997    1.3538 N   0  0  0  0  0  0  0  0  0  0  0  0
    3.2077   -3.7899    3.5789 N   0  0  0  0  0  0  0  0  0  0  0  0
    1.9362   -4.2810    4.0581 C   0  0  0  0  0  0  0  0  0  0  0  0
    1.0038   -3.1940    4.0879 N   0  0  0  0  0  0  0  0  0  0  0  0
    0.7250   -2.5988    2.8123 C   0  0  0  0  0  0  0  0  0  0  0  0
    2.8461   -0.0122   -2.9972 H   0  0  0  0  0  0  0  0  0  0  0  0
    0.6712   -1.0085   -3.3871 H   0  0  0  0  0  0  0  0  0  0  0  0
    3.1331    0.2702   -5.7095 H   0  0  0  0  0  0  0  0  0  0  0  0
    1.9809    1.9446   -1.8574 H   0  0  0  0  0  0  0  0  0  0  0  0
    0.6811    3.0493   -2.9836 H   0  0  0  0  0  0  0  0  0  0  0  0
   -1.0716    0.4782   -4.1076 H   0  0  0  0  0  0  0  0  0  0  0  0
   -1.8291    3.3474   -4.9955 H   0  0  0  0  0  0  0  0  0  0  0  0
   -2.8322    2.3722   -1.4711 H   0  0  0  0  0  0  0  0  0  0  0  0
   -0.2216    3.9682   -0.2153 H   0  0  0  0  0  0  0  0  0  0  0  0
   -2.7229    4.6756   -0.6626 H   0  0  0  0  0  0  0  0  0  0  0  0
   -0.3198    1.3047    0.0773 H   0  0  0  0  0  0  0  0  0  0  0  0
   -0.5995    0.4509   -1.5309 H   0  0  0  0  0  0  0  0  0  0  0  0
   -2.2751   -0.9568   -0.6037 H   0  0  0  0  0  0  0  0  0  0  0  0
   -2.4058    1.0315    1.5517 H   0  0  0  0  0  0  0  0  0  0  0  0
   -4.0373   -0.6395    0.3487 H   0  0  0  0  0  0  0  0  0  0  0  0
   -0.8000   -0.1883    2.7124 H   0  0  0  0  0  0  0  0  0  0  0  0
   -2.3403   -0.4655    4.2558 H   0  0  0  0  0  0  0  0  0  0  0  0
   -2.2382   -2.4955    1.2777 H   0  0  0  0  0  0  0  0  0  0  0  0
   -0.6914   -3.8793    0.3396 H   0  0  0  0  0  0  0  0  0  0  0  0
   -0.7676   -4.9888    1.7215 H   0  0  0  0  0  0  0  0  0  0  0  0
    1.5205   -4.4698    0.2869 H   0  0  0  0  0  0  0  0  0  0  0  0
    1.7806   -2.2683    0.9511 H   0  0  0  0  0  0  0  0  0  0  0  0
    3.6272   -2.1810    2.3186 H   0  0  0  0  0  0  0  0  0  0  0  0
    3.4315   -4.9186    1.1886 H   0  0  0  0  0  0  0  0  0  0  0  0
    4.0098   -3.4413    0.4807 H   0  0  0  0  0  0  0  0  0  0  0  0
    3.7034   -3.2334    4.3108 H   0  0  0  0  0  0  0  0  0  0  0  0
    2.0827   -4.5899    5.1218 H   0  0  0  0  0  0  0  0  0  0  0  0
    1.6120   -5.1748    3.5223 H   0  0  0  0  0  0  0  0  0  0  0  0
    0.1668   -3.3736    4.6828 H   0  0  0  0  0  0  0  0  0  0  0  0
    0.8317   -1.5057    2.9497 H   0  0  0  0  0  0  0  0  0  0  0  0
  1  2  1  0
  1  3  1  0
  1  4  1  0
  1  8  1  0
  5  6  1  0
  5  7  1  0
  5  8  1  0
  5 12  1  0
  9 10  1  0
  9 11  1  0
  9 12  1  0
  9 13  1  0
 13 14  1  0
 14 15  1  0
 15 16  1  0
 15 17  1  0
 16 21  1  0
 17 18  1  0
 17 19  1  0
 19 20  1  0
 19 21  1  0
 21 22  1  0
 22 23  1  0
 22 31  1  0
 23 24  1  0
 24 25  1  0
 25 26  1  0
 25 31  1  0
 26 27  1  0
 26 28  1  0
 28 29  1  0
 29 30  1  0
 30 31  1  0
  1 32  1  0
  2 33  1  0
  3 34  1  0
  4 35  1  0
  5 36  1  0
  6 37  1  0
  7 38  1  0
  9 39  1  0
 10 40  1  0
 11 41  1  0
 14 42  1  0
 14 43  1  0
 15 44  1  6
 17 45  1  1
 18 46  1  0
 19 47  1  1
 20 48  1  0
 21 49  1  6
 23 50  1  0
 23 51  1  0
 24 52  1  0
 25 53  1  0
 26 54  1  1
 27 55  1  0
 27 56  1  0
 28 57  1  0
 29 58  1  0
 29 59  1  0
 30 60  1  0
 31 61  1  0
M  END
$$$$
ADENYLATE KINASE
     RDKit          3D

 61 63  0  0  0  0  0  0  0  0999 V2000
    4.9733   -1.0547    0.3510 P   0  0  0  0  0  0  0  0  0  0  0  0
    4.9268   -1.2467    2.0072 O   0  0  0  0  0  0  0  0  0  0  0  0
    4.2235   -2.5511    0.2567 O   0  0  0  0  0  0  0  0  0  0  0  0
    4.4003   -0.2379   -0.9699 O   0  0  0  0  0  0  0  0  0  0  0  0
    4.3427    1.5902    1.0024 P   0  0  0  0  0  0  0  0  0  0  0  0
    2.9798    2.5805    1.1017 O   0  0  0  0  0  0  0  0  0  0  0  0
    4.7609    1.8546   -0.5514 O   0  0  0  0  0  0  0  0  0  0  0  0
    5.3614    0.5444    0.1204 O   0  0  0  0  0  0  0  0  0  0  0  0
    3.1006    0.9409    3.2419 P   0  0  0  0  0  0  0  0  0  0  0  0
    4.1946    0.4936    4.4617 O   0  0  0  0  0  0  0  0  0  0  0  0
    1.9128    1.7283    4.1933 O   0  0  0  0  0  0  0  0  0  0  0  0
    3.7831    2.2624    2.4318 O   0  0  0  0  0  0  0  0  0  0  0  0
    2.0789   -0.3814    2.9875 O   0  0  0  0  0  0  0  0  0  0  0  0
    1.0639    0.0041    2.1488 C   0  0  0  0  0  0  0  0  0  0  0  0
    0.0351   -1.0852    1.9290 C   0  0  1  0  0  0  0  0  0  0  0  0
   -0.9246   -0.5849    1.0775 O   0  0  0  0  0  0  0  0  0  0  0  0
    0.5778   -2.3582    1.3987 C   0  0  1  0  0  0  0  0  0  0  0  0
   -0.0599   -3.4537    2.0258 O   0  0  0  0  0  0  0  0  0  0  0  0
    0.1930   -2.3098   -0.0472 C   0  0  1  0  0  0  0  0  0  0  0  0
   -0.2840   -3.5831   -0.4066 O   0  0  0  0  0  0  0  0  0  0  0  0
   -0.9005   -1.2698   -0.0954 C   0  0  2  0  0  0  0  0  0  0  0  0
   -0.6694   -0.4459   -1.2596 N   0  0  0  0  0  0  0  0  0  0  0  0
   -0.6928   -1.2088   -2.4762 C   0  0  0  0  0  0  0  0  0  0  0  0
   -1.2343   -0.3190   -3.5035 N   0  0  0  0  0  0  0  0  0  0  0  0
   -2.1750    0.4806   -2.7700 C   0  0  0  0  0  0  0  0  0  0  0  0
   -3.4601   -0.2604   -2.6363 C   0  0  2  0  0  0  0  0  0  0  0  0
   -4.0637   -0.3269   -3.9570 N   0  0  0  0  0  0  0  0  0  0  0  0
   -4.3406    0.5139   -1.8073 N   0  0  0  0  0  0  0  0  0  0  0  0
   -3.8417    0.9110   -0.5589 C   0  0  0  0  0  0  0  0  0  0  0  0
   -2.4487    0.9338   -0.3604 N   0  0  0  0  0  0  0  0  0  0  0  0
   -1.5649    0.6551   -1.4194 C   0  0  0  0  0  0  0  0  0  0  0  0
    5.9195   -0.8802   -0.6928 H   0  0  0  0  0  0  0  0  0  0  0  0
    5.6593   -0.6597    2.3478 H   0  0  0  0  0  0  0  0  0  0  0  0
    3.3240   -2.3764   -0.0922 H   0  0  0  0  0  0  0  0  0  0  0  0
    3.4672   -0.5727   -1.1690 H   0  0  0  0  0  0  0  0  0  0  0  0
    5.6466    2.0353    0.8606 H   0  0  0  0  0  0  0  0  0  0  0  0
    2.4137    2.4357    0.2792 H   0  0  0  0  0  0  0  0  0  0  0  0
    4.2898    2.5238   -1.0817 H   0  0  0  0  0  0  0  0  0  0  0  0
    2.6506   -0.0980    4.0980 H   0  0  0  0  0  0  0  0  0  0  0  0
    4.7082    1.3192    4.6696 H   0  0  0  0  0  0  0  0  0  0  0  0
    1.5370    2.5066    3.6918 H   0  0  0  0  0  0  0  0  0  0  0  0
    1.5299    0.2542    1.1700 H   0  0  0  0  0  0  0  0  0  0  0  0
    0.5273    0.8566    2.6135 H   0  0  0  0  0  0  0  0  0  0  0  0
   -0.4650   -1.2855    2.9207 H   0  0  0  0  0  0  0  0  0  0  0  0
    1.6385   -2.4853    1.6100 H   0  0  0  0  0  0  0  0  0  0  0  0
    0.4376   -3.7934    2.7978 H   0  0  0  0  0  0  0  0  0  0  0  0
    1.0265   -2.0312   -0.6909 H   0  0  0  0  0  0  0  0  0  0  0  0
    0.3272   -3.9820   -1.0931 H   0  0  0  0  0  0  0  0  0  0  0  0
   -1.8526   -1.8061   -0.2290 H   0  0  0  0  0  0  0  0  0  0  0  0
    0.3036   -1.5326   -2.8371 H   0  0  0  0  0  0  0  0  0  0  0  0
   -1.3894   -2.0812   -2.4361 H   0  0  0  0  0  0  0  0  0  0  0  0
   -0.5043    0.2653   -3.9510 H   0  0  0  0  0  0  0  0  0  0  0  0
   -2.3245    1.4309   -3.3178 H   0  0  0  0  0  0  0  0  0  0  0  0
   -3.3046   -1.2958   -2.2889 H   0  0  0  0  0  0  0  0  0  0  0  0
   -3.4205   -0.6899   -4.6909 H   0  0  0  0  0  0  0  0  0  0  0  0
   -4.8466   -1.0417   -3.8904 H   0  0  0  0  0  0  0  0  0  0  0  0
   -5.2608    0.0128   -1.7737 H   0  0  0  0  0  0  0  0  0  0  0  0
   -4.3085    0.2765    0.2268 H   0  0  0  0  0  0  0  0  0  0  0  0
   -4.2483    1.9364   -0.3468 H   0  0  0  0  0  0  0  0  0  0  0  0
   -2.0937    1.6559    0.2905 H   0  0  0  0  0  0  0  0  0  0  0  0
   -0.8947    1.5613   -1.5176 H   0  0  0  0  0  0  0  0  0  0  0  0
  1  2  1  0
  1  3  1  0
  1  4  1  0
  1  8  1  0
  5  6  1  0
  5  7  1  0
  5  8  1  0
  5 12  1  0
  9 10  1  0
  9 11  1  0
  9 12  1  0
  9 13  1  0
 13 14  1  0
 14 15  1  0
 15 16  1  0
 15 17  1  0
 16 21  1  0
 17 18  1  0
 17 19  1  0
 19 20  1  0
 19 21  1  0
 21 22  1  0
 22 23  1  0
 22 31  1  0
 23 24  1  0
 24 25  1  0
 25 26  1  0
 25 31  1  0
 26 27  1  0
 26 28  1  0
 28 29  1  0
 29 30  1  0
 30 31  1  0
  1 32  1  0
  2 33  1  0
  3 34  1  0
  4 35  1  0
  5 36  1  0
  6 37  1  0
  7 38  1  0
  9 39  1  0
 10 40  1  0
 11 41  1  0
 14 42  1  0
 14 43  1  0
 15 44  1  1
 17 45  1  6
 18 46  1  0
 19 47  1  6
 20 48  1  0
 21 49  1  6
 23 50  1  0
 23 51  1  0
 24 52  1  0
 25 53  1  0
 26 54  1  1
 27 55  1  0
 27 56  1  0
 28 57  1  0
 29 58  1  0
 29 59  1  0
 30 60  1  0
 31 61  1  0
M  END
$$$$
ADENYLATE KINASE
     RDKit          3D

 61 63  0  0  0  0  0  0  0  0999 V2000
   -1.4625   -4.2953   -6.1319 P   0  0  0  0  0  0  0  0  0  0  0  0
   -0.5088   -5.6279   -6.4455 O   0  0  0  0  0  0  0  0  0  0  0  0
   -0.4944   -2.9209   -6.3798 O   0  0  0  0  0  0  0  0  0  0  0  0
   -3.1340   -4.4481   -6.1315 O   0  0  0  0  0  0  0  0  0  0  0  0
    0.2847   -4.1048   -3.9402 P   0  0  0  0  0  0  0  0  0  0  0  0
    1.8921   -3.5643   -4.0973 O   0  0  0  0  0  0  0  0  0  0  0  0
    0.5522   -5.6385   -4.5610 O   0  0  0  0  0  0  0  0  0  0  0  0
    0.1052   -4.4740   -5.5478 O   0  0  0  0  0  0  0  0  0  0  0  0
    0.5978   -2.7119   -1.7148 P   0  0  0  0  0  0  0  0  0  0  0  0
    2.0717   -3.4855   -1.3931 O   0  0  0  0  0  0  0  0  0  0  0  0
    0.9784   -1.2505   -2.4129 O   0  0  0  0  0  0  0  0  0  0  0  0
   -0.6162   -3.2608   -2.7547 O   0  0  0  0  0  0  0  0  0  0  0  0
    1.4512   -2.0206   -0.4787 O   0  0  0  0  0  0  0  0  0  0  0  0
    0.9533   -2.3939    0.7515 C   0  0  0  0  0  0  0  0  0  0  0  0
    1.7693   -1.6631    1.8352 C   0  0  1  0  0  0  0  0  0  0  0  0
    1.6229   -0.3499    1.6163 O   0  0  0  0  0  0  0  0  0  0  0  0
    1.2542   -1.9894    3.1853 C   0  0  1  0  0  0  0  0  0  0  0  0
    2.2908   -2.4221    4.0108 O   0  0  0  0  0  0  0  0  0  0  0  0
    0.6668   -0.6850    3.6550 C   0  0  1  0  0  0  0  0  0  0  0  0
    1.1833   -0.4645    4.9472 O   0  0  0  0  0  0  0  0  0  0  0  0
    1.2424    0.3038    2.7317 C   0  0  2  0  0  0  0  0  0  0  0  0
    0.4043    1.4496    2.4723 N   0  0  0  0  0  0  0  0  0  0  0  0
   -0.8545    1.0891    1.8602 C   0  0  0  0  0  0  0  0  0  0  0  0
   -1.8533    2.0463    2.3256 N   0  0  0  0  0  0  0  0  0  0  0  0
   -1.0308    3.1128    2.8883 C   0  0  0  0  0  0  0  0  0  0  0  0
   -1.7538    4.0061    3.8425 C   0  0  2  0  0  0  0  0  0  0  0  0
   -2.4099    5.0426    3.0372 N   0  0  0  0  0  0  0  0  0  0  0  0
   -0.7325    4.6877    4.6269 N   0  0  0  0  0  0  0  0  0  0  0  0
    0.5763    4.5210    4.0624 C   0  0  0  0  0  0  0  0  0  0  0  0
    1.0504    3.1708    4.0350 N   0  0  0  0  0  0  0  0  0  0  0  0
    0.0490    2.2548    3.5750 C   0  0  0  0  0  0  0  0  0  0  0  0
   -1.3129   -4.0702   -7.5388 H   0  0  0  0  0  0  0  0  0  0  0  0
   -1.0415   -6.3798   -6.8435 H   0  0  0  0  0  0  0  0  0  0  0  0
   -1.0368   -2.1387   -6.1056 H   0  0  0  0  0  0  0  0  0  0  0  0
   -3.4344   -4.4735   -5.2024 H   0  0  0  0  0  0  0  0  0  0  0  0
    0.6706   -3.0756   -4.8264 H   0  0  0  0  0  0  0  0  0  0  0  0
    2.4325   -4.2013   -3.5838 H   0  0  0  0  0  0  0  0  0  0  0  0
    1.0613   -6.1496   -3.8550 H   0  0  0  0  0  0  0  0  0  0  0  0
    1.7519   -2.4425   -2.4975 H   0  0  0  0  0  0  0  0  0  0  0  0
    1.8924   -4.4480   -1.1433 H   0  0  0  0  0  0  0  0  0  0  0  0
    0.3319   -0.5072   -2.2027 H   0  0  0  0  0  0  0  0  0  0  0  0
    0.9600   -3.4739    0.9433 H   0  0  0  0  0  0  0  0  0  0  0  0
   -0.0586   -1.9357    0.8329 H   0  0  0  0  0  0  0  0  0  0  0  0
    2.8138   -2.0491    1.7407 H   0  0  0  0  0  0  0  0  0  0  0  0
    0.4875   -2.7994    3.1384 H   0  0  0  0  0  0  0  0  0  0  0  0
    2.5215   -3.3544    3.7621 H   0  0  0  0  0  0  0  0  0  0  0  0
   -0.4367   -0.7269    3.7150 H   0  0  0  0  0  0  0  0  0  0  0  0
    1.4249    0.4850    4.9944 H   0  0  0  0  0  0  0  0  0  0  0  0
    2.1768    0.7403    3.1988 H   0  0  0  0  0  0  0  0  0  0  0  0
   -1.1608    0.0526    1.9950 H   0  0  0  0  0  0  0  0  0  0  0  0
   -0.7184    1.3137    0.7627 H   0  0  0  0  0  0  0  0  0  0  0  0
   -2.4745    2.3705    1.5538 H   0  0  0  0  0  0  0  0  0  0  0  0
   -0.5774    3.6406    2.0473 H   0  0  0  0  0  0  0  0  0  0  0  0
   -2.4729    3.4696    4.4680 H   0  0  0  0  0  0  0  0  0  0  0  0
   -1.7068    5.6217    2.5488 H   0  0  0  0  0  0  0  0  0  0  0  0
   -2.9981    4.5647    2.3436 H   0  0  0  0  0  0  0  0  0  0  0  0
   -0.6921    4.3314    5.6050 H   0  0  0  0  0  0  0  0  0  0  0  0
    1.2790    5.1058    4.6884 H   0  0  0  0  0  0  0  0  0  0  0  0
    0.6541    4.9497    3.0365 H   0  0  0  0  0  0  0  0  0  0  0  0
    1.8787    3.0908    3.4217 H   0  0  0  0  0  0  0  0  0  0  0  0
   -0.5048    1.7575    4.3967 H   0  0  0  0  0  0  0  0  0  0  0  0
  1  2  1  0
  1  3  1  0
  1  4  1  0
  1  8  1  0
  5  6  1  0
  5  7  1  0
  5  8  1  0
  5 12  1  0
  9 10  1  0
  9 11  1  0
  9 12  1  0
  9 13  1  0
 13 14  1  0
 14 15  1  0
 15 16  1  0
 15 17  1  0
 16 21  1  0
 17 18  1  0
 17 19  1  0
 19 20  1  0
 19 21  1  0
 21 22  1  0
 22 23  1  0
 22 31  1  0
 23 24  1  0
 24 25  1  0
 25 26  1  0
 25 31  1  0
 26 27  1  0
 26 28  1  0
 28 29  1  0
 29 30  1  0
 30 31  1  0
  1 32  1  0
  2 33  1  0
  3 34  1  0
  4 35  1  0
  5 36  1  0
  6 37  1  0
  7 38  1  0
  9 39  1  0
 10 40  1  0
 11 41  1  0
 14 42  1  0
 14 43  1  0
 15 44  1  1
 17 45  1  6
 18 46  1  0
 19 47  1  1
 20 48  1  0
 21 49  1  1
 23 50  1  0
 23 51  1  0
 24 52  1  0
 25 53  1  0
 26 54  1  1
 27 55  1  0
 27 56  1  0
 28 57  1  0
 29 58  1  0
 29 59  1  0
 30 60  1  0
 31 61  1  0
M  END
$$$$
ADENYLATE KINASE
     RDKit          3D

 61 63  0  0  0  0  0  0  0  0999 V2000
   -2.8483    1.5569    4.3597 P   0  0  0  0  0  0  0  0  0  0  0  0
   -2.3086    1.2706    5.9477 O   0  0  0  0  0  0  0  0  0  0  0  0
   -4.3851    2.2574    4.5721 O   0  0  0  0  0  0  0  0  0  0  0  0
   -3.4520   -0.0317    4.1652 O   0  0  0  0  0  0  0  0  0  0  0  0
   -0.6176    2.9263    3.7008 P   0  0  0  0  0  0  0  0  0  0  0  0
    0.7776    3.4773    4.4561 O   0  0  0  0  0  0  0  0  0  0  0  0
    0.3444    3.5542    2.4928 O   0  0  0  0  0  0  0  0  0  0  0  0
   -2.2709    3.0554    3.8889 O   0  0  0  0  0  0  0  0  0  0  0  0
   -1.7922    2.4033    1.3085 P   0  0  0  0  0  0  0  0  0  0  0  0
   -3.4409    2.7483    1.2727 O   0  0  0  0  0  0  0  0  0  0  0  0
   -0.8554    3.0819    0.0704 O   0  0  0  0  0  0  0  0  0  0  0  0
   -1.8413    3.3997    2.6683 O   0  0  0  0  0  0  0  0  0  0  0  0
   -1.7321    0.7409    1.2908 O   0  0  0  0  0  0  0  0  0  0  0  0
   -0.5767    0.1769    1.7683 C   0  0  0  0  0  0  0  0  0  0  0  0
   -0.7546   -1.3430    1.6468 C   0  0  1  0  0  0  0  0  0  0  0  0
   -0.9523   -1.6119    0.3140 O   0  0  0  0  0  0  0  0  0  0  0  0
    0.5694   -1.9450    2.0718 C   0  0  1  0  0  0  0  0  0  0  0  0
    0.4002   -3.2539    2.5361 O   0  0  0  0  0  0  0  0  0  0  0  0
    1.2994   -1.9158    0.7397 C   0  0  1  0  0  0  0  0  0  0  0  0
    2.3316   -2.8479    0.7023 O   0  0  0  0  0  0  0  0  0  0  0  0
    0.1688   -2.2579   -0.1715 C   0  0  2  0  0  0  0  0  0  0  0  0
    0.4212   -2.0136   -1.5594 N   0  0  0  0  0  0  0  0  0  0  0  0
    0.7189   -0.6821   -1.9307 C   0  0  0  0  0  0  0  0  0  0  0  0
   -0.3592   -0.1383   -2.7186 N   0  0  0  0  0  0  0  0  0  0  0  0
   -0.8651   -1.3059   -3.4150 C   0  0  0  0  0  0  0  0  0  0  0  0
    0.0541   -1.7667   -4.5070 C   0  0  2  0  0  0  0  0  0  0  0  0
   -0.6795   -2.4665   -5.5193 N   0  0  0  0  0  0  0  0  0  0  0  0
    1.0898   -2.6662   -4.0231 N   0  0  0  0  0  0  0  0  0  0  0  0
    0.5799   -3.8558   -3.4122 C   0  0  0  0  0  0  0  0  0  0  0  0
   -0.7517   -3.6582   -2.8593 N   0  0  0  0  0  0  0  0  0  0  0  0
   -0.8023   -2.3340   -2.2877 C   0  0  0  0  0  0  0  0  0  0  0  0
   -3.2096    2.4209    5.4332 H   0  0  0  0  0  0  0  0  0  0  0  0
   -1.4515    0.7568    5.8981 H   0  0  0  0  0  0  0  0  0  0  0  0
   -5.0194    2.0206    3.8644 H   0  0  0  0  0  0  0  0  0  0  0  0
   -4.0257    0.0310    3.3512 H   0  0  0  0  0  0  0  0  0  0  0  0
   -0.2779    1.9891    4.7230 H   0  0  0  0  0  0  0  0  0  0  0  0
    0.7051    4.3379    4.8997 H   0  0  0  0  0  0  0  0  0  0  0  0
    0.7179    2.7867    1.9916 H   0  0  0  0  0  0  0  0  0  0  0  0
   -1.6022    1.8186    0.0399 H   0  0  0  0  0  0  0  0  0  0  0  0
   -3.9336    2.3448    0.5329 H   0  0  0  0  0  0  0  0  0  0  0  0
   -0.6192    4.0014    0.4111 H   0  0  0  0  0  0  0  0  0  0  0  0
   -0.3060    0.4241    2.8016 H   0  0  0  0  0  0  0  0  0  0  0  0
    0.2564    0.5035    1.1142 H   0  0  0  0  0  0  0  0  0  0  0  0
   -1.5888   -1.6620    2.2909 H   0  0  0  0  0  0  0  0  0  0  0  0
    1.0957   -1.3213    2.8228 H   0  0  0  0  0  0  0  0  0  0  0  0
   -0.4850   -3.6350    2.2876 H   0  0  0  0  0  0  0  0  0  0  0  0
    1.6813   -0.8726    0.6292 H   0  0  0  0  0  0  0  0  0  0  0  0
    3.1036   -2.4531    1.1785 H   0  0  0  0  0  0  0  0  0  0  0  0
   -0.0077   -3.3486   -0.0602 H   0  0  0  0  0  0  0  0  0  0  0  0
    1.6303   -0.7073   -2.5910 H   0  0  0  0  0  0  0  0  0  0  0  0
    0.9575    0.0230   -1.1300 H   0  0  0  0  0  0  0  0  0  0  0  0
    0.0258    0.5081   -3.4425 H   0  0  0  0  0  0  0  0  0  0  0  0
   -1.8823   -1.1224   -3.7736 H   0  0  0  0  0  0  0  0  0  0  0  0
    0.5659   -0.8859   -4.9121 H   0  0  0  0  0  0  0  0  0  0  0  0
   -1.4912   -2.9749   -5.1416 H   0  0  0  0  0  0  0  0  0  0  0  0
   -0.9079   -1.9032   -6.3663 H   0  0  0  0  0  0  0  0  0  0  0  0
    1.7701   -2.8210   -4.7732 H   0  0  0  0  0  0  0  0  0  0  0  0
    0.5949   -4.6872   -4.1406 H   0  0  0  0  0  0  0  0  0  0  0  0
    1.2294   -4.0559   -2.5111 H   0  0  0  0  0  0  0  0  0  0  0  0
   -0.8806   -4.3288   -2.0533 H   0  0  0  0  0  0  0  0  0  0  0  0
   -1.7097   -2.2555   -1.6609 H   0  0  0  0  0  0  0  0  0  0  0  0
  1  2  1  0
  1  3  1  0
  1  4  1  0
  1  8  1  0
  5  6  1  0
  5  7  1  0
  5  8  1  0
  5 12  1  0
  9 10  1  0
  9 11  1  0
  9 12  1  0
  9 13  1  0
 13 14  1  0
 14 15  1  0
 15 16  1  0
 15 17  1  0
 16 21  1  0
 17 18  1  0
 17 19  1  0
 19 20  1  0
 19 21  1  0
 21 22  1  0
 22 23  1  0
 22 31  1  0
 23 24  1  0
 24 25  1  0
 25 26  1  0
 25 31  1  0
 26 27  1  0
 26 28  1  0
 28 29  1  0
 29 30  1  0
 30 31  1  0
  1 32  1  0
  2 33  1  0
  3 34  1  0
  4 35  1  0
  5 36  1  0
  6 37  1  0
  7 38  1  0
  9 39  1  0
 10 40  1  0
 11 41  1  0
 14 42  1  0
 14 43  1  0
 15 44  1  1
 17 45  1  1
 18 46  1  0
 19 47  1  6
 20 48  1  0
 21 49  1  6
 23 50  1  0
 23 51  1  0
 24 52  1  0
 25 53  1  0
 26 54  1  6
 27 55  1  0
 27 56  1  0
 28 57  1  0
 29 58  1  0
 29 59  1  0
 30 60  1  0
 31 61  1  0
M  END
$$$$
ADENYLATE KINASE
     RDKit          3D

 61 63  0  0  0  0  0  0  0  0999 V2000
    3.3824    0.9554   -4.3826 P   0  0  0  0  0  0  0  0  0  0  0  0
    3.0403    1.1213   -6.0147 O   0  0  0  0  0  0  0  0  0  0  0  0
    4.9186    0.2642   -4.5231 O   0  0  0  0  0  0  0  0  0  0  0  0
    3.3860    2.5886   -3.9093 O   0  0  0  0  0  0  0  0  0  0  0  0
    1.1223   -0.6651   -4.1582 P   0  0  0  0  0  0  0  0  0  0  0  0
    2.5324   -1.5366   -3.8455 O   0  0  0  0  0  0  0  0  0  0  0  0
    0.7362   -2.2228   -3.6129 O   0  0  0  0  0  0  0  0  0  0  0  0
    2.2115    0.3290   -3.3545 O   0  0  0  0  0  0  0  0  0  0  0  0
   -0.2152    1.3855   -2.8779 P   0  0  0  0  0  0  0  0  0  0  0  0
   -0.4786    2.8408   -2.1330 O   0  0  0  0  0  0  0  0  0  0  0  0
   -1.1867    1.3884   -4.2508 O   0  0  0  0  0  0  0  0  0  0  0  0
    0.5343    0.8904   -4.3078 O   0  0  0  0  0  0  0  0  0  0  0  0
   -1.2125    0.2591   -2.1311 O   0  0  0  0  0  0  0  0  0  0  0  0
   -1.8610    0.8961   -1.1043 C   0  0  0  0  0  0  0  0  0  0  0  0
   -2.6950   -0.0857   -0.2675 C   0  0  1  0  0  0  0  0  0  0  0  0
   -1.8786   -1.0630    0.2855 O   0  0  0  0  0  0  0  0  0  0  0  0
   -3.2948    0.7171    0.8374 C   0  0  1  0  0  0  0  0  0  0  0  0
   -4.6764    0.6500    0.7957 O   0  0  0  0  0  0  0  0  0  0  0  0
   -2.8418   -0.0753    2.0728 C   0  0  1  0  0  0  0  0  0  0  0  0
   -3.7750   -1.0922    2.2834 O   0  0  0  0  0  0  0  0  0  0  0  0
   -1.5349   -0.6276    1.5601 C   0  0  2  0  0  0  0  0  0  0  0  0
   -0.4917    0.3387    1.5492 N   0  0  0  0  0  0  0  0  0  0  0  0
   -0.1214    0.8298    2.8461 C   0  0  0  0  0  0  0  0  0  0  0  0
    1.0788    0.0991    3.2673 N   0  0  0  0  0  0  0  0  0  0  0  0
    1.3020   -0.8982    2.2549 C   0  0  0  0  0  0  0  0  0  0  0  0
    2.7562   -1.2053    2.0155 C   0  0  2  0  0  0  0  0  0  0  0  0
    3.2671   -1.9062    3.1666 N   0  0  0  0  0  0  0  0  0  0  0  0
    3.5236   -0.0694    1.6106 N   0  0  0  0  0  0  0  0  0  0  0  0
    2.7753    1.1158    1.3924 C   0  0  0  0  0  0  0  0  0  0  0  0
    1.5642    0.9589    0.6701 N   0  0  0  0  0  0  0  0  0  0  0  0
    0.7539   -0.1790    1.0285 C   0  0  0  0  0  0  0  0  0  0  0  0
    3.4805    0.0612   -3.2894 H   0  0  0  0  0  0  0  0  0  0  0  0
    2.2889    0.5526   -6.2967 H   0  0  0  0  0  0  0  0  0  0  0  0
    5.6415    0.8172   -4.1325 H   0  0  0  0  0  0  0  0  0  0  0  0
    3.7284    2.6459   -2.9807 H   0  0  0  0  0  0  0  0  0  0  0  0
   -0.0340   -0.8293   -4.9758 H   0  0  0  0  0  0  0  0  0  0  0  0
    2.9612   -1.6770   -4.7482 H   0  0  0  0  0  0  0  0  0  0  0  0
   -0.0335   -2.2559   -3.0125 H   0  0  0  0  0  0  0  0  0  0  0  0
    0.7262    2.3772   -3.2306 H   0  0  0  0  0  0  0  0  0  0  0  0
   -1.3760    3.2186   -2.3964 H   0  0  0  0  0  0  0  0  0  0  0  0
   -1.7284    2.1941   -4.3746 H   0  0  0  0  0  0  0  0  0  0  0  0
   -2.6213    1.6065   -1.5339 H   0  0  0  0  0  0  0  0  0  0  0  0
   -1.2160    1.5168   -0.4528 H   0  0  0  0  0  0  0  0  0  0  0  0
   -3.4866   -0.4548   -0.9207 H   0  0  0  0  0  0  0  0  0  0  0  0
   -2.9194    1.7590    0.8902 H   0  0  0  0  0  0  0  0  0  0  0  0
   -5.0446   -0.1749    1.1692 H   0  0  0  0  0  0  0  0  0  0  0  0
   -2.7520    0.5972    2.9209 H   0  0  0  0  0  0  0  0  0  0  0  0
   -4.3688   -0.8746    3.0462 H   0  0  0  0  0  0  0  0  0  0  0  0
   -1.3171   -1.5107    2.2095 H   0  0  0  0  0  0  0  0  0  0  0  0
    0.1603    1.9164    2.7173 H   0  0  0  0  0  0  0  0  0  0  0  0
   -0.8934    0.8182    3.6110 H   0  0  0  0  0  0  0  0  0  0  0  0
    0.8467   -0.3733    4.1682 H   0  0  0  0  0  0  0  0  0  0  0  0
    0.7614   -1.8314    2.3916 H   0  0  0  0  0  0  0  0  0  0  0  0
    2.7648   -1.9469    1.1686 H   0  0  0  0  0  0  0  0  0  0  0  0
    2.5044   -2.5635    3.4716 H   0  0  0  0  0  0  0  0  0  0  0  0
    4.1384   -2.4407    2.9878 H   0  0  0  0  0  0  0  0  0  0  0  0
    4.2673   -0.2698    0.9227 H   0  0  0  0  0  0  0  0  0  0  0  0
    3.4217    1.8105    0.7809 H   0  0  0  0  0  0  0  0  0  0  0  0
    2.6402    1.6554    2.3720 H   0  0  0  0  0  0  0  0  0  0  0  0
    1.6041    1.1824   -0.3266 H   0  0  0  0  0  0  0  0  0  0  0  0
    0.6148   -0.8603    0.1735 H   0  0  0  0  0  0  0  0  0  0  0  0
  1  2  1  0
  1  3  1  0
  1  4  1  0
  1  8  1  0
  5  6  1  0
  5  7  1  0
  5  8  1  0
  5 12  1  0
  9 10  1  0
  9 11  1  0
  9 12  1  0
  9 13  1  0
 13 14  1  0
 14 15  1  0
 15 16  1  0
 15 17  1  0
 16 21  1  0
 17 18  1  0
 17 19  1  0
 19 20  1  0
 19 21  1  0
 21 22  1  0
 22 23  1  0
 22 31  1  0
 23 24  1  0
 24 25  1  0
 25 26  1  0
 25 31  1  0
 26 27  1  0
 26 28  1  0
 28 29  1  0
 29 30  1  0
 30 31  1  0
  1 32  1  0
  2 33  1  0
  3 34  1  0
  4 35  1  0
  5 36  1  0
  6 37  1  0
  7 38  1  0
  9 39  1  0
 10 40  1  0
 11 41  1  0
 14 42  1  0
 14 43  1  0
 15 44  1  6
 17 45  1  1
 18 46  1  0
 19 47  1  1
 20 48  1  0
 21 49  1  1
 23 50  1  0
 23 51  1  0
 24 52  1  0
 25 53  1  0
 26 54  1  6
 27 55  1  0
 27 56  1  0
 28 57  1  0
 29 58  1  0
 29 59  1  0
 30 60  1  0
 31 61  1  0
M  END
$$$$
ADENYLATE KINASE
     RDKit          3D

 61 63  0  0  0  0  0  0  0  0999 V2000
    0.9911   -2.0175    4.7116 P   0  0  0  0  0  0  0  0  0  0  0  0
    2.0607   -3.2478    5.2158 O   0  0  0  0  0  0  0  0  0  0  0  0
    0.5698   -2.4723    6.2780 O   0  0  0  0  0  0  0  0  0  0  0  0
    0.1401   -2.7761    3.4454 O   0  0  0  0  0  0  0  0  0  0  0  0
    2.5174    0.1700    4.1537 P   0  0  0  0  0  0  0  0  0  0  0  0
    4.1723    0.0379    3.7802 O   0  0  0  0  0  0  0  0  0  0  0  0
    3.4174   -0.3251    5.4215 O   0  0  0  0  0  0  0  0  0  0  0  0
    1.0140   -0.5459    3.8802 O   0  0  0  0  0  0  0  0  0  0  0  0
    1.5387    1.2724    1.9682 P   0  0  0  0  0  0  0  0  0  0  0  0
    3.2188    1.2947    1.8041 O   0  0  0  0  0  0  0  0  0  0  0  0
    0.8805    2.8252    2.0560 O   0  0  0  0  0  0  0  0  0  0  0  0
    1.0820    0.7793    3.5125 O   0  0  0  0  0  0  0  0  0  0  0  0
    0.2055    1.6148    0.9849 O   0  0  0  0  0  0  0  0  0  0  0  0
   -0.4238    0.4766    0.5406 C   0  0  0  0  0  0  0  0  0  0  0  0
   -1.6173    0.8135   -0.3624 C   0  0  1  0  0  0  0  0  0  0  0  0
   -1.1129    1.5158   -1.4275 O   0  0  0  0  0  0  0  0  0  0  0  0
   -2.2175   -0.4107   -0.9674 C   0  0  1  0  0  0  0  0  0  0  0  0
   -3.3410   -0.7730   -0.2163 O   0  0  0  0  0  0  0  0  0  0  0  0
   -2.7061    0.0729   -2.3404 C   0  0  1  0  0  0  0  0  0  0  0  0
   -4.0815    0.2817   -2.3067 O   0  0  0  0  0  0  0  0  0  0  0  0
   -1.9187    1.2939   -2.5384 C   0  0  2  0  0  0  0  0  0  0  0  0
   -1.2217    1.4428   -3.7695 N   0  0  0  0  0  0  0  0  0  0  0  0
   -0.5235    2.7183   -3.7116 C   0  0  0  0  0  0  0  0  0  0  0  0
    0.8031    2.4296   -3.1729 N   0  0  0  0  0  0  0  0  0  0  0  0
    0.9406    1.0017   -3.1645 C   0  0  0  0  0  0  0  0  0  0  0  0
    2.2656    0.6575   -3.8560 C   0  0  2  0  0  0  0  0  0  0  0  0
    3.3219    0.9817   -2.9348 N   0  0  0  0  0  0  0  0  0  0  0  0
    2.2734    1.5106   -5.0285 N   0  0  0  0  0  0  0  0  0  0  0  0
    1.2943    1.0174   -5.9503 C   0  0  0  0  0  0  0  0  0  0  0  0
    0.0828    0.5687   -5.4511 N   0  0  0  0  0  0  0  0  0  0  0  0
   -0.1585    0.5437   -4.0530 C   0  0  0  0  0  0  0  0  0  0  0  0
   -0.3552   -1.8037    4.4462 H   0  0  0  0  0  0  0  0  0  0  0  0
    2.3631   -3.6880    4.3598 H   0  0  0  0  0  0  0  0  0  0  0  0
    0.3191   -1.6786    6.8162 H   0  0  0  0  0  0  0  0  0  0  0  0
    0.8377   -3.2292    2.8737 H   0  0  0  0  0  0  0  0  0  0  0  0
    2.7217    1.5340    4.4387 H   0  0  0  0  0  0  0  0  0  0  0  0
    4.2559   -0.5118    2.9460 H   0  0  0  0  0  0  0  0  0  0  0  0
    3.0308   -0.1985    6.3220 H   0  0  0  0  0  0  0  0  0  0  0  0
    0.4827    1.2300    2.8646 H   0  0  0  0  0  0  0  0  0  0  0  0
    3.4965    2.2012    2.1502 H   0  0  0  0  0  0  0  0  0  0  0  0
    1.6331    3.4540    2.2608 H   0  0  0  0  0  0  0  0  0  0  0  0
    0.2480   -0.2536    0.0485 H   0  0  0  0  0  0  0  0  0  0  0  0
   -0.8391   -0.0493    1.4262 H   0  0  0  0  0  0  0  0  0  0  0  0
   -2.3564    1.3694    0.2489 H   0  0  0  0  0  0  0  0  0  0  0  0
   -1.5057   -1.2544   -1.0701 H   0  0  0  0  0  0  0  0  0  0  0  0
   -3.1361   -1.3354    0.5550 H   0  0  0  0  0  0  0  0  0  0  0  0
   -2.5228   -0.7596   -3.0262 H   0  0  0  0  0  0  0  0  0  0  0  0
   -4.3440    0.8806   -1.5657 H   0  0  0  0  0  0  0  0  0  0  0  0
   -2.6554    2.1535   -2.5257 H   0  0  0  0  0  0  0  0  0  0  0  0
   -0.3483    3.1630   -4.7078 H   0  0  0  0  0  0  0  0  0  0  0  0
   -1.0696    3.4476   -3.0663 H   0  0  0  0  0  0  0  0  0  0  0  0
    0.9921    2.9149   -2.2910 H   0  0  0  0  0  0  0  0  0  0  0  0
    0.8835    0.5318   -2.1669 H   0  0  0  0  0  0  0  0  0  0  0  0
    2.2326   -0.3940   -4.1649 H   0  0  0  0  0  0  0  0  0  0  0  0
    4.0911    0.2719   -2.9890 H   0  0  0  0  0  0  0  0  0  0  0  0
    2.9528    0.9297   -1.9564 H   0  0  0  0  0  0  0  0  0  0  0  0
    3.2166    1.5246   -5.4818 H   0  0  0  0  0  0  0  0  0  0  0  0
    1.1238    1.8443   -6.6904 H   0  0  0  0  0  0  0  0  0  0  0  0
    1.7932    0.2039   -6.5301 H   0  0  0  0  0  0  0  0  0  0  0  0
   -0.7289    0.9166   -6.0104 H   0  0  0  0  0  0  0  0  0  0  0  0
   -0.3706   -0.5139   -3.7963 H   0  0  0  0  0  0  0  0  0  0  0  0
  1  2  1  0
  1  3  1  0
  1  4  1  0
  1  8  1  0
  5  6  1  0
  5  7  1  0
  5  8  1  0
  5 12  1  0
  9 10  1  0
  9 11  1  0
  9 12  1  0
  9 13  1  0
 13 14  1  0
 14 15  1  0
 15 16  1  0
 15 17  1  0
 16 21  1  0
 17 18  1  0
 17 19  1  0
 19 20  1  0
 19 21  1  0
 21 22  1  0
 22 23  1  0
 22 31  1  0
 23 24  1  0
 24 25  1  0
 25 26  1  0
 25 31  1  0
 26 27  1  0
 26 28  1  0
 28 29  1  0
 29 30  1  0
 30 31  1  0
  1 32  1  0
  2 33  1  0
  3 34  1  0
  4 35  1  0
  5 36  1  0
  6 37  1  0
  7 38  1  0
  9 39  1  0
 10 40  1  0
 11 41  1  0
 14 42  1  0
 14 43  1  0
 15 44  1  1
 17 45  1  6
 18 46  1  0
 19 47  1  6
 20 48  1  0
 21 49  1  6
 23 50  1  0
 23 51  1  0
 24 52  1  0
 25 53  1  0
 26 54  1  6
 27 55  1  0
 27 56  1  0
 28 57  1  0
 29 58  1  0
 29 59  1  0
 30 60  1  0
 31 61  1  0
M  END
$$$$
ADENYLATE KINASE
     RDKit          3D

 61 63  0  0  0  0  0  0  0  0999 V2000
   -1.3499   -0.5433   -3.6824 P   0  0  0  0  0  0  0  0  0  0  0  0
   -1.0110    0.9576   -2.9765 O   0  0  0  0  0  0  0  0  0  0  0  0
   -0.2771    0.4628   -4.5508 O   0  0  0  0  0  0  0  0  0  0  0  0
   -0.4254   -1.9724   -3.5006 O   0  0  0  0  0  0  0  0  0  0  0  0
   -2.2045   -1.0228   -1.1551 P   0  0  0  0  0  0  0  0  0  0  0  0
   -3.1683   -2.4069   -1.0909 O   0  0  0  0  0  0  0  0  0  0  0  0
   -3.4542    0.0573   -1.6044 O   0  0  0  0  0  0  0  0  0  0  0  0
   -1.6665   -1.7573   -2.5923 O   0  0  0  0  0  0  0  0  0  0  0  0
   -2.3903   -1.8693    1.4177 P   0  0  0  0  0  0  0  0  0  0  0  0
   -1.5679   -2.0463    2.8706 O   0  0  0  0  0  0  0  0  0  0  0  0
   -2.8259   -0.2285    1.6137 O   0  0  0  0  0  0  0  0  0  0  0  0
   -1.8087   -0.6492    0.4211 O   0  0  0  0  0  0  0  0  0  0  0  0
   -0.7324   -1.6111    1.2668 O   0  0  0  0  0  0  0  0  0  0  0  0
   -0.0664   -2.7437    0.8463 C   0  0  0  0  0  0  0  0  0  0  0  0
    1.4295   -2.4205    0.7410 C   0  0  1  0  0  0  0  0  0  0  0  0
    1.6572   -1.4112   -0.1537 O   0  0  0  0  0  0  0  0  0  0  0  0
    1.9538   -1.9710    2.0876 C   0  0  1  0  0  0  0  0  0  0  0  0
    3.2851   -2.3537    2.2268 O   0  0  0  0  0  0  0  0  0  0  0  0
    1.9735   -0.4700    1.8696 C   0  0  1  0  0  0  0  0  0  0  0  0
    2.8147    0.1738    2.7522 O   0  0  0  0  0  0  0  0  0  0  0  0
    2.4562   -0.4573    0.4339 C   0  0  2  0  0  0  0  0  0  0  0  0
    2.3837    0.8190   -0.2019 N   0  0  0  0  0  0  0  0  0  0  0  0
    2.8578    0.7202   -1.5696 C   0  0  0  0  0  0  0  0  0  0  0  0
    3.4941    1.9900   -1.8639 N   0  0  0  0  0  0  0  0  0  0  0  0
    3.9761    2.5159   -0.6190 C   0  0  0  0  0  0  0  0  0  0  0  0
    3.8484    4.0002   -0.4939 C   0  0  2  0  0  0  0  0  0  0  0  0
    4.9859    4.5101    0.2745 N   0  0  0  0  0  0  0  0  0  0  0  0
    2.6418    4.4881    0.0734 N   0  0  0  0  0  0  0  0  0  0  0  0
    1.7584    3.5253    0.6390 C   0  0  0  0  0  0  0  0  0  0  0  0
    2.5262    2.5311    1.3605 N   0  0  0  0  0  0  0  0  0  0  0  0
    3.3244    1.7287    0.4622 C   0  0  0  0  0  0  0  0  0  0  0  0
   -2.5962   -0.4761   -4.2997 H   0  0  0  0  0  0  0  0  0  0  0  0
   -1.1327    0.8787   -1.9836 H   0  0  0  0  0  0  0  0  0  0  0  0
    0.1184   -0.1649   -5.2238 H   0  0  0  0  0  0  0  0  0  0  0  0
    0.3395   -1.9917   -4.1594 H   0  0  0  0  0  0  0  0  0  0  0  0
   -2.6309    0.0979   -0.3831 H   0  0  0  0  0  0  0  0  0  0  0  0
   -3.9674   -2.2832   -0.5376 H   0  0  0  0  0  0  0  0  0  0  0  0
   -3.8481   -0.3392   -2.4439 H   0  0  0  0  0  0  0  0  0  0  0  0
   -3.5822   -2.4929    1.7938 H   0  0  0  0  0  0  0  0  0  0  0  0
   -1.9991   -1.6298    3.6431 H   0  0  0  0  0  0  0  0  0  0  0  0
   -3.4943   -0.1324    2.3374 H   0  0  0  0  0  0  0  0  0  0  0  0
   -0.2388   -3.5957    1.5195 H   0  0  0  0  0  0  0  0  0  0  0  0
   -0.4569   -3.0009   -0.1564 H   0  0  0  0  0  0  0  0  0  0  0  0
    1.9551   -3.3317    0.3594 H   0  0  0  0  0  0  0  0  0  0  0  0
    1.3186   -2.2821    2.9346 H   0  0  0  0  0  0  0  0  0  0  0  0
    3.6069   -2.3084    3.1478 H   0  0  0  0  0  0  0  0  0  0  0  0
    0.9235   -0.1003    1.9274 H   0  0  0  0  0  0  0  0  0  0  0  0
    2.2368    0.6468    3.4136 H   0  0  0  0  0  0  0  0  0  0  0  0
    3.5368   -0.7786    0.4996 H   0  0  0  0  0  0  0  0  0  0  0  0
    3.5451   -0.1417   -1.6958 H   0  0  0  0  0  0  0  0  0  0  0  0
    2.0226    0.5790   -2.2862 H   0  0  0  0  0  0  0  0  0  0  0  0
    2.8574    2.6424   -2.3721 H   0  0  0  0  0  0  0  0  0  0  0  0
    5.0845    2.2944   -0.6115 H   0  0  0  0  0  0  0  0  0  0  0  0
    3.9486    4.4364   -1.5300 H   0  0  0  0  0  0  0  0  0  0  0  0
    4.8553    4.3147    1.2801 H   0  0  0  0  0  0  0  0  0  0  0  0
    5.8815    4.0548   -0.0393 H   0  0  0  0  0  0  0  0  0  0  0  0
    2.8487    5.2186    0.8148 H   0  0  0  0  0  0  0  0  0  0  0  0
    1.1189    4.0422    1.3966 H   0  0  0  0  0  0  0  0  0  0  0  0
    1.0659    3.0527   -0.0820 H   0  0  0  0  0  0  0  0  0  0  0  0
    3.0356    2.9538    2.1411 H   0  0  0  0  0  0  0  0  0  0  0  0
    4.0756    1.1712    1.0597 H   0  0  0  0  0  0  0  0  0  0  0  0
  1  2  1  0
  1  3  1  0
  1  4  1  0
  1  8  1  0
  5  6  1  0
  5  7  1  0
  5  8  1  0
  5 12  1  0
  9 10  1  0
  9 11  1  0
  9 12  1  0
  9 13  1  0
 13 14  1  0
 14 15  1  0
 15 16  1  0
 15 17  1  0
 16 21  1  0
 17 18  1  0
 17 19  1  0
 19 20  1  0
 19 21  1  0
 21 22  1  0
 22 23  1  0
 22 31  1  0
 23 24  1  0
 24 25  1  0
 25 26  1  0
 25 31  1  0
 26 27  1  0
 26 28  1  0
 28 29  1  0
 29 30  1  0
 30 31  1  0
  1 32  1  0
  2 33  1  0
  3 34  1  0
  4 35  1  0
  5 36  1  0
  6 37  1  0
  7 38  1  0
  9 39  1  0
 10 40  1  0
 11 41  1  0
 14 42  1  0
 14 43  1  0
 15 44  1  6
 17 45  1  1
 18 46  1  0
 19 47  1  6
 20 48  1  0
 21 49  1  1
 23 50  1  0
 23 51  1  0
 24 52  1  0
 25 53  1  0
 26 54  1  6
 27 55  1  0
 27 56  1  0
 28 57  1  0
 29 58  1  0
 29 59  1  0
 30 60  1  0
 31 61  1  0
M  END
$$$$
ADENYLATE KINASE
     RDKit          3D

 61 63  0  0  0  0  0  0  0  0999 V2000
   -0.2839   -1.6003   -6.3926 P   0  0  0  0  0  0  0  0  0  0  0  0
   -1.1149   -0.9330   -7.6876 O   0  0  0  0  0  0  0  0  0  0  0  0
   -0.5993   -3.2366   -6.1985 O   0  0  0  0  0  0  0  0  0  0  0  0
    0.5919   -0.9331   -7.6638 O   0  0  0  0  0  0  0  0  0  0  0  0
    0.4047    0.6284   -4.8866 P   0  0  0  0  0  0  0  0  0  0  0  0
   -0.7783    1.7728   -5.3170 O   0  0  0  0  0  0  0  0  0  0  0  0
    1.9241    1.0917   -5.4533 O   0  0  0  0  0  0  0  0  0  0  0  0
   -0.8574   -0.1938   -5.6263 O   0  0  0  0  0  0  0  0  0  0  0  0
   -0.7578    0.2613   -2.4795 P   0  0  0  0  0  0  0  0  0  0  0  0
    0.4650   -0.8050   -1.9990 O   0  0  0  0  0  0  0  0  0  0  0  0
   -2.3290   -0.1280   -2.9512 O   0  0  0  0  0  0  0  0  0  0  0  0
   -0.9925    0.9125   -4.0196 O   0  0  0  0  0  0  0  0  0  0  0  0
   -0.5331    0.9875   -0.9952 O   0  0  0  0  0  0  0  0  0  0  0  0
   -1.5402    1.8728   -0.6409 C   0  0  0  0  0  0  0  0  0  0  0  0
   -1.2412    2.4741    0.7242 C   0  0  1  0  0  0  0  0  0  0  0  0
   -1.1760    1.4471    1.6258 O   0  0  0  0  0  0  0  0  0  0  0  0
    0.0434    3.2349    0.7378 C   0  0  1  0  0  0  0  0  0  0  0  0
   -0.1688    4.6277    0.6829 O   0  0  0  0  0  0  0  0  0  0  0  0
    0.6417    2.8367    2.0637 C   0  0  1  0  0  0  0  0  0  0  0  0
    0.2203    3.6994    3.0484 O   0  0  0  0  0  0  0  0  0  0  0  0
    0.0143    1.4882    2.3125 C   0  0  2  0  0  0  0  0  0  0  0  0
    0.8595    0.4190    1.8138 N   0  0  0  0  0  0  0  0  0  0  0  0
    2.1623    0.3791    2.4188 C   0  0  0  0  0  0  0  0  0  0  0  0
    2.5226   -1.0149    2.5482 N   0  0  0  0  0  0  0  0  0  0  0  0
    1.4102   -1.7947    2.0535 C   0  0  0  0  0  0  0  0  0  0  0  0
    1.1169   -2.9533    3.0146 C   0  0  2  0  0  0  0  0  0  0  0  0
   -0.2130   -3.4669    2.8634 N   0  0  0  0  0  0  0  0  0  0  0  0
    1.2418   -2.3691    4.3302 N   0  0  0  0  0  0  0  0  0  0  0  0
    0.3761   -1.2649    4.5631 C   0  0  0  0  0  0  0  0  0  0  0  0
   -0.3372   -0.7514    3.4503 N   0  0  0  0  0  0  0  0  0  0  0  0
    0.2595   -0.8520    2.1688 C   0  0  0  0  0  0  0  0  0  0  0  0
   -0.2163   -2.1622   -5.0973 H   0  0  0  0  0  0  0  0  0  0  0  0
   -2.0754   -1.1879   -7.6479 H   0  0  0  0  0  0  0  0  0  0  0  0
   -1.4169   -3.5338   -6.6972 H   0  0  0  0  0  0  0  0  0  0  0  0
    1.4087   -1.4485   -7.8312 H   0  0  0  0  0  0  0  0  0  0  0  0
    1.4104    0.6571   -3.9146 H   0  0  0  0  0  0  0  0  0  0  0  0
   -0.3846    2.3461   -6.0468 H   0  0  0  0  0  0  0  0  0  0  0  0
    1.7841    1.9815   -5.9092 H   0  0  0  0  0  0  0  0  0  0  0  0
   -0.7851   -0.4657   -1.2891 H   0  0  0  0  0  0  0  0  0  0  0  0
    1.0059   -1.0177   -2.8235 H   0  0  0  0  0  0  0  0  0  0  0  0
   -2.9258    0.1847   -2.2213 H   0  0  0  0  0  0  0  0  0  0  0  0
   -1.7546    2.6192   -1.4164 H   0  0  0  0  0  0  0  0  0  0  0  0
   -2.4602    1.2497   -0.5029 H   0  0  0  0  0  0  0  0  0  0  0  0
   -2.0468    3.1555    1.0520 H   0  0  0  0  0  0  0  0  0  0  0  0
    0.7219    3.0067   -0.1061 H   0  0  0  0  0  0  0  0  0  0  0  0
    0.7332    5.0234    0.6494 H   0  0  0  0  0  0  0  0  0  0  0  0
    1.7365    2.7133    2.0052 H   0  0  0  0  0  0  0  0  0  0  0  0
    0.5408    4.6117    2.9393 H   0  0  0  0  0  0  0  0  0  0  0  0
   -0.1770    1.3259    3.3770 H   0  0  0  0  0  0  0  0  0  0  0  0
    2.8740    0.9297    1.7566 H   0  0  0  0  0  0  0  0  0  0  0  0
    2.0877    0.8365    3.4242 H   0  0  0  0  0  0  0  0  0  0  0  0
    3.4226   -1.2603    2.1126 H   0  0  0  0  0  0  0  0  0  0  0  0
    1.5528   -2.2040    1.0502 H   0  0  0  0  0  0  0  0  0  0  0  0
    1.9170   -3.6895    2.8663 H   0  0  0  0  0  0  0  0  0  0  0  0
   -0.8282   -3.3339    3.7043 H   0  0  0  0  0  0  0  0  0  0  0  0
   -0.6751   -3.2464    1.9690 H   0  0  0  0  0  0  0  0  0  0  0  0
    2.2447   -2.0737    4.4203 H   0  0  0  0  0  0  0  0  0  0  0  0
    0.9091   -0.4398    5.0796 H   0  0  0  0  0  0  0  0  0  0  0  0
   -0.3958   -1.6226    5.3061 H   0  0  0  0  0  0  0  0  0  0  0  0
   -1.3662   -0.8708    3.4832 H   0  0  0  0  0  0  0  0  0  0  0  0
   -0.5387   -1.1141    1.4274 H   0  0  0  0  0  0  0  0  0  0  0  0
  1  2  1  0
  1  3  1  0
  1  4  1  0
  1  8  1  0
  5  6  1  0
  5  7  1  0
  5  8  1  0
  5 12  1  0
  9 10  1  0
  9 11  1  0
  9 12  1  0
  9 13  1  0
 13 14  1  0
 14 15  1  0
 15 16  1  0
 15 17  1  0
 16 21  1  0
 17 18  1  0
 17 19  1  0
 19 20  1  0
 19 21  1  0
 21 22  1  0
 22 23  1  0
 22 31  1  0
 23 24  1  0
 24 25  1  0
 25 26  1  0
 25 31  1  0
 26 27  1  0
 26 28  1  0
 28 29  1  0
 29 30  1  0
 30 31  1  0
  1 32  1  0
  2 33  1  0
  3 34  1  0
  4 35  1  0
  5 36  1  0
  6 37  1  0
  7 38  1  0
  9 39  1  0
 10 40  1  0
 11 41  1  0
 14 42  1  0
 14 43  1  0
 15 44  1  1
 17 45  1  6
 18 46  1  0
 19 47  1  6
 20 48  1  0
 21 49  1  1
 23 50  1  0
 23 51  1  0
 24 52  1  0
 25 53  1  0
 26 54  1  1
 27 55  1  0
 27 56  1  0
 28 57  1  0
 29 58  1  0
 29 59  1  0
 30 60  1  0
 31 61  1  0
M  END
$$$$
ADENYLATE KINASE
     RDKit          3D

 61 63  0  0  0  0  0  0  0  0999 V2000
    2.8732   -3.0188    2.9922 P   0  0  0  0  0  0  0  0  0  0  0  0
    1.6792   -3.2262    1.8184 O   0  0  0  0  0  0  0  0  0  0  0  0
    3.9670   -3.9188    2.0972 O   0  0  0  0  0  0  0  0  0  0  0  0
    2.0445   -4.1627    3.9134 O   0  0  0  0  0  0  0  0  0  0  0  0
    2.0744   -0.4798    3.5249 P   0  0  0  0  0  0  0  0  0  0  0  0
    0.6704   -1.2348    4.0780 O   0  0  0  0  0  0  0  0  0  0  0  0
    0.7205    0.5624    3.4510 O   0  0  0  0  0  0  0  0  0  0  0  0
    3.3594   -1.3794    2.9336 O   0  0  0  0  0  0  0  0  0  0  0  0
    2.3330    0.6903    1.0987 P   0  0  0  0  0  0  0  0  0  0  0  0
    3.9211    1.2743    1.0916 O   0  0  0  0  0  0  0  0  0  0  0  0
    1.5403    2.1464    0.7303 O   0  0  0  0  0  0  0  0  0  0  0  0
    3.1772   -0.2253    2.2435 O   0  0  0  0  0  0  0  0  0  0  0  0
    1.0435    0.8411    0.0044 O   0  0  0  0  0  0  0  0  0  0  0  0
    1.3721    0.1943   -1.1905 C   0  0  0  0  0  0  0  0  0  0  0  0
    0.2826    0.2800   -2.2162 C   0  0  1  0  0  0  0  0  0  0  0  0
   -0.8510   -0.3193   -1.6839 O   0  0  0  0  0  0  0  0  0  0  0  0
   -0.2130    1.6807   -2.4783 C   0  0  1  0  0  0  0  0  0  0  0  0
    0.5828    2.3631   -3.4107 O   0  0  0  0  0  0  0  0  0  0  0  0
   -1.5821    1.3716   -3.0990 C   0  0  1  0  0  0  0  0  0  0  0  0
   -1.3284    1.1708   -4.4753 O   0  0  0  0  0  0  0  0  0  0  0  0
   -1.9477    0.1083   -2.4356 C   0  0  2  0  0  0  0  0  0  0  0  0
   -3.1078    0.0998   -1.6066 N   0  0  0  0  0  0  0  0  0  0  0  0
   -3.2809   -1.2514   -1.0523 C   0  0  0  0  0  0  0  0  0  0  0  0
   -2.9314   -1.0562    0.3638 N   0  0  0  0  0  0  0  0  0  0  0  0
   -3.7296    0.1390    0.5787 C   0  0  0  0  0  0  0  0  0  0  0  0
   -3.4917    0.8373    1.8653 C   0  0  2  0  0  0  0  0  0  0  0  0
   -4.1073    0.1299    2.9556 N   0  0  0  0  0  0  0  0  0  0  0  0
   -4.0557    2.1789    1.7463 N   0  0  0  0  0  0  0  0  0  0  0  0
   -4.8213    2.3246    0.5045 C   0  0  0  0  0  0  0  0  0  0  0  0
   -3.9787    2.1461   -0.6625 N   0  0  0  0  0  0  0  0  0  0  0  0
   -3.1198    1.0140   -0.5246 C   0  0  0  0  0  0  0  0  0  0  0  0
    2.4620   -4.2750    2.5071 H   0  0  0  0  0  0  0  0  0  0  0  0
    1.5147   -2.3361    1.4042 H   0  0  0  0  0  0  0  0  0  0  0  0
    4.4674   -3.3415    1.4939 H   0  0  0  0  0  0  0  0  0  0  0  0
    1.9080   -3.8693    4.8481 H   0  0  0  0  0  0  0  0  0  0  0  0
    1.7203   -0.3416    4.8606 H   0  0  0  0  0  0  0  0  0  0  0  0
    0.3823   -1.9756    3.4894 H   0  0  0  0  0  0  0  0  0  0  0  0
    1.0115    1.2890    2.8394 H   0  0  0  0  0  0  0  0  0  0  0  0
    3.4204    0.0681    0.4150 H   0  0  0  0  0  0  0  0  0  0  0  0
    3.9846    2.1813    1.4842 H   0  0  0  0  0  0  0  0  0  0  0  0
    1.9491    2.9224    1.2090 H   0  0  0  0  0  0  0  0  0  0  0  0
    2.3612    0.4982   -1.5734 H   0  0  0  0  0  0  0  0  0  0  0  0
    1.4626   -0.8882   -0.9314 H   0  0  0  0  0  0  0  0  0  0  0  0
    0.6184   -0.2211   -3.1230 H   0  0  0  0  0  0  0  0  0  0  0  0
   -0.3091    2.2483   -1.5528 H   0  0  0  0  0  0  0  0  0  0  0  0
    0.9411    1.6819   -4.0392 H   0  0  0  0  0  0  0  0  0  0  0  0
   -2.2732    2.2157   -3.0233 H   0  0  0  0  0  0  0  0  0  0  0  0
   -0.8424    0.3243   -4.6214 H   0  0  0  0  0  0  0  0  0  0  0  0
   -2.1067   -0.6721   -3.2136 H   0  0  0  0  0  0  0  0  0  0  0  0
   -2.6874   -2.0069   -1.5495 H   0  0  0  0  0  0  0  0  0  0  0  0
   -4.3876   -1.4099   -1.0775 H   0  0  0  0  0  0  0  0  0  0  0  0
   -1.9364   -0.7388    0.3479 H   0  0  0  0  0  0  0  0  0  0  0  0
   -4.7717   -0.1210    0.3711 H   0  0  0  0  0  0  0  0  0  0  0  0
   -2.3757    0.9324    1.9829 H   0  0  0  0  0  0  0  0  0  0  0  0
   -4.7707    0.7619    3.4770 H   0  0  0  0  0  0  0  0  0  0  0  0
   -3.3488   -0.0812    3.6590 H   0  0  0  0  0  0  0  0  0  0  0  0
   -4.6978    2.3796    2.5281 H   0  0  0  0  0  0  0  0  0  0  0  0
   -5.2232    3.3711    0.5523 H   0  0  0  0  0  0  0  0  0  0  0  0
   -5.7294    1.6763    0.4953 H   0  0  0  0  0  0  0  0  0  0  0  0
   -3.5050    3.0344   -0.8593 H   0  0  0  0  0  0  0  0  0  0  0  0
   -2.1098    1.2611   -0.1152 H   0  0  0  0  0  0  0  0  0  0  0  0
  1  2  1  0
  1  3  1  0
  1  4  1  0
  1  8  1  0
  5  6  1  0
  5  7  1  0
  5  8  1  0
  5 12  1  0
  9 10  1  0
  9 11  1  0
  9 12  1  0
  9 13  1  0
 13 14  1  0
 14 15  1  0
 15 16  1  0
 15 17  1  0
 16 21  1  0
 17 18  1  0
 17 19  1  0
 19 20  1  0
 19 21  1  0
 21 22  1  0
 22 23  1  0
 22 31  1  0
 23 24  1  0
 24 25  1  0
 25 26  1  0
 25 31  1  0
 26 27  1  0
 26 28  1  0
 28 29  1  0
 29 30  1  0
 30 31  1  0
  1 32  1  0
  2 33  1  0
  3 34  1  0
  4 35  1  0
  5 36  1  0
  6 37  1  0
  7 38  1  0
  9 39  1  0
 10 40  1  0
 11 41  1  0
 14 42  1  0
 14 43  1  0
 15 44  1  6
 17 45  1  1
 18 46  1  0
 19 47  1  6
 20 48  1  0
 21 49  1  6
 23 50  1  0
 23 51  1  0
 24 52  1  0
 25 53  1  0
 26 54  1  1
 27 55  1  0
 27 56  1  0
 28 57  1  0
 29 58  1  0
 29 59  1  0
 30 60  1  0
 31 61  1  0
M  END
$$$$
