@<TRIPOS>MOLECULE
/Users/xuhangdai/Desktop/Projects/OptimalTransport/extra_bio_ligands_boltz_af3/boltz_results_6ln3_ATP/6ln3_ATP_model_49_chainB.pdb
 31 33 0 0 0
SMALL
GASTEIGER

@<TRIPOS>ATOM
      1  N38        4.5970   -1.0490   -4.4480 N.pl3   0  LIG0       -0.1054
      2  C34        5.6570   -1.2910   -3.6300 C.ar    0  LIG0        0.1919
      3  N20        6.8940   -1.4150   -4.1610 N.ar    0  LIG0       -0.2040
      4  C33        7.9520   -1.6600   -3.3480 C.ar    0  LIG0        0.2016
      5  N22        7.8620   -1.7940   -2.0180 N.ar    0  LIG0       -0.2048
      6  C37        6.6390   -1.6750   -1.4620 C.ar    0  LIG0        0.1692
      7  N39        6.2430   -1.7560   -0.1810 N.ar    0  LIG0       -0.2693
      8  C35        4.8980   -1.5510   -0.1380 C.ar    0  LIG0        0.1816
      9  N21        4.4310   -1.3430   -1.3760 N.ar    0  LIG0       -0.2193
     10  C36        5.4830   -1.4160   -2.2150 C.ar    0  LIG0        0.1518
     11  C43        7.1460   -2.0320    0.9360 C.3     0  LIG0        0.2409
     12  O25        6.4290   -2.5990    2.0200 O.3     0  LIG0       -0.3306
     13  C44        6.6240   -1.7930    3.1580 C.3     0  LIG0        0.1801
     14  C40        5.3940   -1.8450    4.0370 C.3     0  LIG0        0.1813
     15  O30        4.2820   -1.4870    3.2870 O.3     0  LIG0       -0.3112
     16  P46        3.0110   -0.7620    3.9730 P.3     0  LIG0        0.2189
     17  O28        2.7990   -1.2800    5.3490 O.3     0  LIG0       -0.4371
     18  O18        1.8820   -0.9110    3.0270 O.2     0  LIG0       -0.5170
     19  O32        3.3920    0.8160    3.9900 O.3     0  LIG0       -0.2700
     20  P47        4.2260    1.7290    5.0180 P.3     0  LIG0        0.2277
     21  O29        5.0530    2.6830    4.2100 O.2     0  LIG0       -0.5168
     22  O19        5.0090    0.8570    5.9300 O.3     0  LIG0       -0.4368
     23  O31        3.1590    2.5640    5.8930 O.3     0  LIG0       -0.2258
     24  P45        1.5620    2.8460    5.7240 P.3     0  LIG0        0.5373
     25  O26        1.3110    3.2430    4.3050 O.2     0  LIG0       -0.2221
     26  O27        1.2390    3.9780    6.6790 O.3     0  LIG0       -0.1143
     27  O17        0.8730    1.6000    6.1180 O.3     0  LIG0       -0.1143
     28  C41        6.9280   -0.4050    2.6250 C.3     0  LIG0        0.2161
     29  O23        7.6050    0.4230    3.5450 O.3     0  LIG0       -0.2175
     30  C42        7.7940   -0.7620    1.4430 C.3     0  LIG0        0.2337
     31  O24        9.1260   -1.0470    1.8780 O.3     0  LIG0       -0.2155
@<TRIPOS>BOND
     1     1     2    1
     2     3     2   ar
     3     3     4   ar
     4     2    10   ar
     5     4     5   ar
     6    10     6   ar
     7    10     9   ar
     8     5     6   ar
     9     6     7   ar
    10     9     8   ar
    11     7     8   ar
    12     7    11    1
    13    11    30    1
    14    11    12    1
    15    30    31    1
    16    30    28    1
    17    12    13    1
    18    28    13    1
    19    28    29    1
    20    18    16    2
    21    13    14    1
    22    15    16    1
    23    15    14    1
    24    16    19    1
    25    16    17    1
    26    19    20    1
    27    21    20    2
    28    25    24    2
    29    20    23    1
    30    20    22    1
    31    24    23    1
    32    24    27    1
    33    24    26    1
