@<TRIPOS>MOLECULE
/Users/xuhangdai/Desktop/Projects/OptimalTransport/extra_bio_ligands_boltz_af3/boltz_results_6ln3_ATP/6ln3_ATP_model_47_chainB.pdb
 31 33 0 0 0
SMALL
GASTEIGER

@<TRIPOS>ATOM
      1  N38        0.9630    1.6980   -4.1550 N.pl3   0  LIG0       -0.1054
      2  C34        2.0270    1.1020   -4.7560 C.ar    0  LIG0        0.1919
      3  N20        2.6680    1.7400   -5.7630 N.ar    0  LIG0       -0.2040
      4  C33        3.7270    1.1470   -6.3660 C.ar    0  LIG0        0.2016
      5  N22        4.2050   -0.0610   -6.0340 N.ar    0  LIG0       -0.2048
      6  C37        3.5860   -0.7180   -5.0300 C.ar    0  LIG0        0.1692
      7  N39        3.8350   -1.9220   -4.4820 N.ar    0  LIG0       -0.2693
      8  C35        2.9270   -2.1310   -3.4850 C.ar    0  LIG0        0.1816
      9  N21        2.1030   -1.0780   -3.3950 N.ar    0  LIG0       -0.2193
     10  C36        2.4830   -0.1870   -4.3380 C.ar    0  LIG0        0.1518
     11  C43        4.9050   -2.8180   -4.9260 C.3     0  LIG0        0.2409
     12  O25        4.5900   -4.1650   -4.5980 O.3     0  LIG0       -0.3306
     13  C44        5.6350   -4.6920   -3.8100 C.3     0  LIG0        0.1801
     14  C40        5.0860   -5.7260   -2.8570 C.3     0  LIG0        0.1813
     15  O30        4.0490   -5.1630   -2.1110 O.3     0  LIG0       -0.3112
     16  P46        3.8280   -5.5840   -0.5640 P.3     0  LIG0        0.2189
     17  O28        4.0820   -7.0410   -0.3980 O.2     0  LIG0       -0.5170
     18  O18        2.4830   -5.0890   -0.1680 O.3     0  LIG0       -0.4371
     19  O32        4.9490   -4.6690    0.1990 O.3     0  LIG0       -0.2700
     20  P47        6.2680   -4.9830    1.0750 P.3     0  LIG0        0.2277
     21  O29        6.7450   -6.3820    0.8610 O.3     0  LIG0       -0.4368
     22  O19        7.2660   -3.9350    0.7210 O.2     0  LIG0       -0.5168
     23  O31        5.8300   -4.7420    2.6070 O.3     0  LIG0       -0.2258
     24  P45        4.9820   -5.6640    3.6560 P.3     0  LIG0        0.5373
     25  O26        5.2040   -7.1140    3.3000 O.2     0  LIG0       -0.2221
     26  O27        5.5540   -5.3340    5.0210 O.3     0  LIG0       -0.1143
     27  O17        3.5660   -5.2410    3.5350 O.3     0  LIG0       -0.1143
     28  C41        6.2580   -3.4930   -3.1150 C.3     0  LIG0        0.2161
     29  O23        7.5770   -3.7180   -2.6540 O.3     0  LIG0       -0.2175
     30  C42        6.2160   -2.4860   -4.2430 C.3     0  LIG0        0.2337
     31  O24        7.3010   -2.7130   -5.1470 O.3     0  LIG0       -0.2155
@<TRIPOS>BOND
     1     4     5   ar
     2     4     3   ar
     3     5     6   ar
     4     3     2   ar
     5    31    30    1
     6     6     7   ar
     7     6    10   ar
     8    11    12    1
     9    11     7    1
    10    11    30    1
    11     2    10   ar
    12     2     1    1
    13    12    13    1
    14     7     8   ar
    15    10     9   ar
    16    30    28    1
    17    13    28    1
    18    13    14    1
    19     8     9   ar
    20    28    29    1
    21    14    15    1
    22    15    16    1
    23    16    17    2
    24    16    18    1
    25    16    19    1
    26    19    20    1
    27    22    20    2
    28    21    20    1
    29    20    23    1
    30    23    24    1
    31    25    24    2
    32    27    24    1
    33    24    26    1
