@<TRIPOS>MOLECULE
/Users/xuhangdai/Desktop/Projects/OptimalTransport/extra_bio_ligands_boltz_af3/boltz_results_6ln3_ATP/6ln3_ATP_model_42_chainB.pdb
 31 33 0 0 0
SMALL
GASTEIGER

@<TRIPOS>ATOM
      1  N38        0.7560    2.6700   -5.8480 N.pl3   0  LIG0       -0.1054
      2  C34       -0.3620    3.4400   -5.9720 C.ar    0  LIG0        0.1919
      3  N20       -0.6910    3.9470   -7.1840 N.ar    0  LIG0       -0.2040
      4  C33       -1.7990    4.7170   -7.3110 C.ar    0  LIG0        0.2016
      5  N22       -2.6160    5.0290   -6.2990 N.ar    0  LIG0       -0.2048
      6  C37       -2.3100    4.5330   -5.0810 C.ar    0  LIG0        0.1692
      7  N39       -2.9300    4.6640   -3.8990 N.ar    0  LIG0       -0.2693
      8  C35       -2.2310    3.9610   -2.9620 C.ar    0  LIG0        0.1816
      9  N21       -1.1680    3.3870   -3.5370 N.ar    0  LIG0       -0.2193
     10  C36       -1.1910    3.7210   -4.8450 C.ar    0  LIG0        0.1518
     11  C43       -4.1450    5.4500   -3.7150 C.3     0  LIG0        0.2409
     12  O25       -4.2650    5.8730   -2.3670 O.3     0  LIG0       -0.3306
     13  C44       -5.4980    5.4150   -1.8650 C.3     0  LIG0        0.1801
     14  C40       -5.3730    5.1580   -0.3830 C.3     0  LIG0        0.1813
     15  O30       -4.2760    4.3320   -0.1680 O.3     0  LIG0       -0.3112
     16  P46       -4.3020    3.2390    1.0210 P.3     0  LIG0        0.2189
     17  O28       -4.9840    3.8030    2.2180 O.3     0  LIG0       -0.4371
     18  O18       -2.9030    2.7710    1.1950 O.2     0  LIG0       -0.5170
     19  O32       -5.1390    2.0240    0.3340 O.3     0  LIG0       -0.2700
     20  P47       -6.6150    1.4270    0.5430 P.3     0  LIG0        0.2277
     21  O29       -7.4690    2.3500    1.3600 O.3     0  LIG0       -0.4368
     22  O19       -7.1450    1.1300   -0.8220 O.2     0  LIG0       -0.5168
     23  O31       -6.3760    0.0270    1.2980 O.3     0  LIG0       -0.2258
     24  P45       -5.8240   -0.2840    2.8020 P.3     0  LIG0        0.5373
     25  O26       -6.3920    0.7620    3.7370 O.3     0  LIG0       -0.1143
     26  O27       -6.3440   -1.6700    3.1330 O.3     0  LIG0       -0.1143
     27  O17       -4.3400   -0.2510    2.7240 O.2     0  LIG0       -0.2221
     28  C41       -5.8260    4.1730   -2.6740 C.3     0  LIG0        0.2161
     29  O23       -7.1930    3.8180   -2.6560 O.3     0  LIG0       -0.2175
     30  C42       -5.3740    4.6270   -4.0400 C.3     0  LIG0        0.2337
     31  O24       -6.3640    5.4610   -4.6410 O.3     0  LIG0       -0.2155
@<TRIPOS>BOND
     1     4     3   ar
     2     4     5   ar
     3     3     2   ar
     4     5     6   ar
     5     2     1    1
     6     2    10   ar
     7     6    10   ar
     8     6     7   ar
     9    10     9   ar
    10    31    30    1
    11    30    11    1
    12    30    28    1
    13     7    11    1
    14     7     8   ar
    15    11    12    1
    16     9     8   ar
    17    28    29    1
    18    28    13    1
    19    12    13    1
    20    13    14    1
    21    22    20    2
    22    14    15    1
    23    15    16    1
    24    19    20    1
    25    19    16    1
    26    20    23    1
    27    20    21    1
    28    16    18    2
    29    16    17    1
    30    23    24    1
    31    27    24    2
    32    24    26    1
    33    24    25    1
