@<TRIPOS>MOLECULE
/Users/xuhangdai/Desktop/Projects/OptimalTransport/extra_bio_ligands_boltz_af3/boltz_results_6ln3_ATP/6ln3_ATP_model_26_chainB.pdb
 31 33 0 0 0
SMALL
GASTEIGER

@<TRIPOS>ATOM
      1  N38        3.2920    2.3750    2.6660 N.pl3   0  LIG0       -0.1054
      2  C34        4.6280    2.1050    2.6700 C.ar    0  LIG0        0.1919
      3  N20        5.4170    2.6530    3.6240 N.ar    0  LIG0       -0.2040
      4  C33        6.7480    2.3860    3.6270 C.ar    0  LIG0        0.2016
      5  N22        7.3610    1.5990    2.7300 N.ar    0  LIG0       -0.2048
      6  C37        6.5970    1.0380    1.7690 C.ar    0  LIG0        0.1692
      7  N39        6.9220    0.2170    0.7540 N.ar    0  LIG0       -0.2693
      8  C35        5.7820   -0.0770    0.0630 C.ar    0  LIG0        0.1816
      9  N21        4.7400    0.5490    0.6240 N.ar    0  LIG0       -0.2193
     10  C36        5.2110    1.2490    1.6810 C.ar    0  LIG0        0.1518
     11  C43        8.2830   -0.2400    0.4860 C.3     0  LIG0        0.2409
     12  O25        8.4290   -0.5830   -0.8870 O.3     0  LIG0       -0.3306
     13  C44        8.8820   -1.9160   -0.9650 C.3     0  LIG0        0.1801
     14  C40        8.3780   -2.5530   -2.2390 C.3     0  LIG0        0.1813
     15  O30        6.9960   -2.4090   -2.3010 O.3     0  LIG0       -0.3112
     16  P46        6.0630   -3.5950   -2.8840 P.3     0  LIG0        0.2189
     17  O28        6.7210   -4.2280   -4.0640 O.2     0  LIG0       -0.5170
     18  O18        4.7160   -3.0130   -3.0950 O.3     0  LIG0       -0.4371
     19  O32        5.9610   -4.6170   -1.6200 O.3     0  LIG0       -0.2700
     20  P47        6.5700   -6.0660   -1.2900 P.3     0  LIG0        0.2277
     21  O29        7.6870   -6.4100   -2.2360 O.2     0  LIG0       -0.5168
     22  O19        6.9590   -6.0430    0.1490 O.3     0  LIG0       -0.4368
     23  O31        5.3400   -7.0930   -1.4360 O.3     0  LIG0       -0.2258
     24  P45        4.3760   -7.4720   -2.6990 P.3     0  LIG0        0.5373
     25  O26        5.1680   -7.2730   -3.9700 O.2     0  LIG0       -0.2221
     26  O27        4.0090   -8.9310   -2.4860 O.3     0  LIG0       -0.1143
     27  O17        3.1910   -6.5880   -2.5980 O.3     0  LIG0       -0.1143
     28  C41        8.3730   -2.5880    0.3010 C.3     0  LIG0        0.2161
     29  O23        9.0730   -3.7650    0.6470 O.3     0  LIG0       -0.2175
     30  C42        8.6140   -1.4770    1.2970 C.3     0  LIG0        0.2337
     31  O24        9.9920   -1.4420    1.6780 O.3     0  LIG0       -0.2155
@<TRIPOS>BOND
     1    17    16    2
     2    25    24    2
     3    18    16    1
     4    16    15    1
     5    16    19    1
     6    24    27    1
     7    24    26    1
     8    24    23    1
     9    15    14    1
    10    14    13    1
    11    21    20    2
    12    19    20    1
    13    23    20    1
    14    20    22    1
    15    13    12    1
    16    13    28    1
    17    12    11    1
    18     8     9   ar
    19     8     7   ar
    20    28    29    1
    21    28    30    1
    22    11     7    1
    23    11    30    1
    24     9    10   ar
    25     7     6   ar
    26    30    31    1
    27    10     6   ar
    28    10     2   ar
    29     6     5   ar
    30     1     2    1
    31     2     3   ar
    32     5     4   ar
    33     3     4   ar
