@<TRIPOS>MOLECULE
/Users/xuhangdai/Desktop/Projects/OptimalTransport/extra_bio_ligands_boltz_af3/boltz_results_6ln3_ATP/6ln3_ATP_model_31_chainB.pdb
 31 33 0 0 0
SMALL
GASTEIGER

@<TRIPOS>ATOM
      1  N38       -0.1880    3.9140   -3.8570 N.pl3   0  LIG0       -0.1054
      2  C34       -0.1000    3.5340   -5.1650 C.ar    0  LIG0        0.1919
      3  N20        0.6230    4.2810   -6.0300 N.ar    0  LIG0       -0.2040
      4  C33        0.7120    3.9070   -7.3290 C.ar    0  LIG0        0.2016
      5  N22        0.1200    2.8250   -7.8420 N.ar    0  LIG0       -0.2048
      6  C37       -0.6080    2.0620   -7.0020 C.ar    0  LIG0        0.1692
      7  N39       -1.3020    0.9330   -7.2220 N.ar    0  LIG0       -0.2693
      8  C35       -1.8600    0.5430   -6.0420 C.ar    0  LIG0        0.1816
      9  N21       -1.5270    1.4060   -5.0740 N.ar    0  LIG0       -0.2193
     10  C36       -0.7560    2.3570   -5.6390 C.ar    0  LIG0        0.1518
     11  C43       -1.4120    0.2880   -8.5300 C.3     0  LIG0        0.2409
     12  O25       -2.5870   -0.4980   -8.5880 O.3     0  LIG0       -0.3306
     13  C44       -2.2190   -1.8220   -8.8960 C.3     0  LIG0        0.1801
     14  C40       -3.2050   -2.7740   -8.2690 C.3     0  LIG0        0.1813
     15  O30       -3.2950   -2.5130   -6.9060 O.3     0  LIG0       -0.3112
     16  P46       -3.4640   -3.7320   -5.8610 P.3     0  LIG0        0.2189
     17  O28       -4.4160   -4.7440   -6.4060 O.2     0  LIG0       -0.5170
     18  O18       -3.7970   -3.1330   -4.5390 O.3     0  LIG0       -0.4371
     19  O32       -1.9430   -4.3080   -5.7690 O.3     0  LIG0       -0.2700
     20  P47       -1.2630   -5.6780   -6.2680 P.3     0  LIG0        0.2277
     21  O29       -2.1350   -6.3910   -7.2550 O.2     0  LIG0       -0.5168
     22  O19        0.0950   -5.3260   -6.7810 O.3     0  LIG0       -0.4368
     23  O31       -1.0640   -6.5480   -4.9230 O.3     0  LIG0       -0.2258
     24  P45       -2.1620   -7.1980   -3.9050 P.3     0  LIG0        0.5373
     25  O26       -3.4020   -7.5430   -4.6980 O.2     0  LIG0       -0.2221
     26  O27       -1.4870   -8.4410   -3.3450 O.3     0  LIG0       -0.1143
     27  O17       -2.4040   -6.1830   -2.8430 O.3     0  LIG0       -0.1143
     28  C41       -0.8010   -1.9720   -8.3780 C.3     0  LIG0        0.2161
     29  O23       -0.0830   -3.0440   -8.9700 O.3     0  LIG0       -0.2175
     30  C42       -0.2390   -0.6360   -8.7780 C.3     0  LIG0        0.2337
     31  O24        0.0870   -0.6330  -10.1720 O.3     0  LIG0       -0.2155
@<TRIPOS>BOND
     1    31    30    1
     2    29    28    1
     3    13    12    1
     4    13    28    1
     5    13    14    1
     6    30    11    1
     7    30    28    1
     8    12    11    1
     9    11     7    1
    10    14    15    1
    11     5     4   ar
    12     5     6   ar
    13     4     3   ar
    14    21    20    2
    15     7     6   ar
    16     7     8   ar
    17     6    10   ar
    18    15    16    1
    19    22    20    1
    20    17    16    2
    21    20    19    1
    22    20    23    1
    23     8     9   ar
    24     3     2   ar
    25    16    19    1
    26    16    18    1
    27    10     2   ar
    28    10     9   ar
    29     2     1    1
    30    23    24    1
    31    25    24    2
    32    24    26    1
    33    24    27    1
