@<TRIPOS>MOLECULE
/Users/xuhangdai/Desktop/Projects/OptimalTransport/extra_bio_ligands_boltz_af3/boltz_results_6ln3_ATP/6ln3_ATP_model_25_chainB.pdb
 31 33 0 0 0
SMALL
GASTEIGER

@<TRIPOS>ATOM
      1  N38        5.5140    3.0920   -4.6740 N.pl3   0  LIG0       -0.1054
      2  C34        4.9010    3.9460   -5.5390 C.ar    0  LIG0        0.1919
      3  N20        5.5510    4.3460   -6.6570 N.ar    0  LIG0       -0.2040
      4  C33        4.9430    5.1990   -7.5200 C.ar    0  LIG0        0.2016
      5  N22        3.7090    5.6940   -7.3450 N.ar    0  LIG0       -0.2048
      6  C37        3.0390    5.3100   -6.2380 C.ar    0  LIG0        0.1692
      7  N39        1.8070    5.6310   -5.8010 N.ar    0  LIG0       -0.2693
      8  C35        1.5860    4.9710   -4.6270 C.ar    0  LIG0        0.1816
      9  N21        2.6620    4.2370   -4.3130 N.ar    0  LIG0       -0.2193
     10  C36        3.5770    4.4260   -5.2870 C.ar    0  LIG0        0.1518
     11  C43        0.9100    6.5460   -6.5080 C.3     0  LIG0        0.2409
     12  O25       -0.0230    7.1210   -5.6020 O.3     0  LIG0       -0.3306
     13  C44       -1.3270    6.8270   -6.0550 C.3     0  LIG0        0.1801
     14  C40       -2.2590    6.7140   -4.8710 C.3     0  LIG0        0.1813
     15  O30       -1.7530    5.7680   -3.9840 O.3     0  LIG0       -0.3112
     16  P46       -2.7500    4.8540   -3.0970 P.3     0  LIG0        0.2189
     17  O28       -3.9580    5.6400   -2.6870 O.2     0  LIG0       -0.5170
     18  O18       -1.9260    4.2720   -2.0060 O.3     0  LIG0       -0.4371
     19  O32       -3.1380    3.6340   -4.1050 O.3     0  LIG0       -0.2700
     20  P47       -4.3900    3.3440   -5.0700 P.3     0  LIG0        0.2277
     21  O29       -5.3370    4.5170   -5.0880 O.3     0  LIG0       -0.4368
     22  O19       -3.8300    2.9620   -6.4030 O.2     0  LIG0       -0.5168
     23  O31       -5.1030    2.0350   -4.4450 O.3     0  LIG0       -0.2258
     24  P45       -5.5960    1.6960   -2.9280 P.3     0  LIG0        0.5373
     25  O26       -6.0420    2.9880   -2.2790 O.3     0  LIG0       -0.1143
     26  O27       -6.7530    0.7260   -3.0930 O.2     0  LIG0       -0.2221
     27  O17       -4.4370    1.0590   -2.2490 O.3     0  LIG0       -0.1143
     28  C41       -1.1940    5.5410   -6.8560 C.3     0  LIG0        0.2161
     29  O23       -2.2570    5.3160   -7.7640 O.3     0  LIG0       -0.2175
     30  C42        0.1090    5.8180   -7.5710 C.3     0  LIG0        0.2337
     31  O24       -0.1120    6.6860   -8.6850 O.3     0  LIG0       -0.2155
@<TRIPOS>BOND
     1    31    30    1
     2    29    28    1
     3    30    28    1
     4    30    11    1
     5     4     5   ar
     6     4     3   ar
     7     5     6   ar
     8    28    13    1
     9     3     2   ar
    10    11     7    1
    11    11    12    1
    12    22    20    2
    13     6     7   ar
    14     6    10   ar
    15    13    12    1
    16    13    14    1
    17     7     8   ar
    18     2    10   ar
    19     2     1    1
    20    10     9   ar
    21    21    20    1
    22    20    23    1
    23    20    19    1
    24    14    15    1
    25     8     9   ar
    26    23    24    1
    27    19    16    1
    28    15    16    1
    29    16    17    2
    30    16    18    1
    31    26    24    2
    32    24    25    1
    33    24    27    1
