@<TRIPOS>MOLECULE
/Users/xuhangdai/Desktop/Projects/OptimalTransport/extra_bio_ligands_boltz_af3/boltz_results_6ln3_ATP/6ln3_ATP_model_15_chainB.pdb
 31 33 0 0 0
SMALL
GASTEIGER

@<TRIPOS>ATOM
      1  N38       -1.0630    7.2930    2.2450 N.pl3   0  LIG0       -0.1054
      2  C34       -1.4730    8.0400    1.1860 C.ar    0  LIG0        0.1919
      3  N20       -1.1200    9.3400    1.1150 N.ar    0  LIG0       -0.2040
      4  C33       -1.5270   10.0900    0.0630 C.ar    0  LIG0        0.2016
      5  N22       -2.2760    9.6260   -0.9430 N.ar    0  LIG0       -0.2048
      6  C37       -2.6410    8.3320   -0.8960 C.ar    0  LIG0        0.1692
      7  N39       -3.3750    7.5970   -1.7450 N.ar    0  LIG0       -0.2693
      8  C35       -3.4530    6.3310   -1.2550 C.ar    0  LIG0        0.1816
      9  N21       -2.7800    6.2530   -0.1050 N.ar    0  LIG0       -0.2193
     10  C36       -2.2680    7.4720    0.1450 C.ar    0  LIG0        0.1518
     11  C43       -3.9720    8.1260   -2.9680 C.3     0  LIG0        0.2409
     12  O25       -5.1010    7.3520   -3.3310 O.3     0  LIG0       -0.3306
     13  C44       -4.9020    6.8650   -4.6370 C.3     0  LIG0        0.1801
     14  C40       -5.5970    5.5350   -4.7840 C.3     0  LIG0        0.1813
     15  O30       -5.1270    4.6590   -3.8100 O.3     0  LIG0       -0.3112
     16  P46       -4.9990    3.0870   -4.1340 P.3     0  LIG0        0.2189
     17  O28       -6.1010    2.6520   -5.0370 O.2     0  LIG0       -0.5170
     18  O18       -4.8970    2.3910   -2.8230 O.3     0  LIG0       -0.4371
     19  O32       -3.5420    2.9730   -4.8510 O.3     0  LIG0       -0.2700
     20  P47       -3.0620    2.9170   -6.3810 P.3     0  LIG0        0.2277
     21  O29       -4.2160    3.1270   -7.3230 O.2     0  LIG0       -0.5168
     22  O19       -1.9490    3.9040   -6.5360 O.3     0  LIG0       -0.4368
     23  O31       -2.4270    1.4550   -6.5710 O.3     0  LIG0       -0.2258
     24  P45       -3.0310   -0.0120   -6.2190 P.3     0  LIG0        0.5373
     25  O26       -4.5260    0.0350   -6.4340 O.3     0  LIG0       -0.1143
     26  O27       -2.3620   -0.9710   -7.1800 O.2     0  LIG0       -0.2221
     27  O17       -2.6460   -0.2890   -4.8110 O.3     0  LIG0       -0.1143
     28  C41       -3.3960    6.7920   -4.8170 C.3     0  LIG0        0.2161
     29  O23       -2.9790    6.7670   -6.1680 O.3     0  LIG0       -0.2175
     30  C42       -2.9940    8.0660   -4.1240 C.3     0  LIG0        0.2337
     31  O24       -3.2030    9.1860   -4.9890 O.3     0  LIG0       -0.2155
@<TRIPOS>BOND
     1    21    20    2
     2    26    24    2
     3    23    20    1
     4    23    24    1
     5    22    20    1
     6    25    24    1
     7    20    19    1
     8    24    27    1
     9    29    28    1
    10    17    16    2
    11    31    30    1
    12    19    16    1
    13    28    13    1
    14    28    30    1
    15    14    13    1
    16    14    15    1
    17    13    12    1
    18    16    15    1
    19    16    18    1
    20    30    11    1
    21    12    11    1
    22    11     7    1
    23     7     8   ar
    24     7     6   ar
    25     8     9   ar
    26     5     6   ar
    27     5     4   ar
    28     6    10   ar
    29     9    10   ar
    30     4     3   ar
    31    10     2   ar
    32     3     2   ar
    33     2     1    1
