@<TRIPOS>MOLECULE
/Users/xuhangdai/Desktop/Projects/OptimalTransport/extra_bio_ligands_boltz_af3/boltz_results_6ln3_ATP/6ln3_ATP_model_9_chainB.pdb
 31 33 0 0 0
SMALL
GASTEIGER

@<TRIPOS>ATOM
      1  N38       -4.3560    1.5650    2.2540 N.pl3   0  LIG0       -0.1054
      2  C34       -4.7420    0.4840    2.9870 C.ar    0  LIG0        0.1919
      3  N20       -6.0410    0.3480    3.3440 N.ar    0  LIG0       -0.2040
      4  C33       -6.4280   -0.7280    4.0740 C.ar    0  LIG0        0.2016
      5  N22       -5.5970   -1.6970    4.4880 N.ar    0  LIG0       -0.2048
      6  C37       -4.2980   -1.5840    4.1440 C.ar    0  LIG0        0.1692
      7  N39       -3.2470   -2.3800    4.4040 N.ar    0  LIG0       -0.2693
      8  C35       -2.1400   -1.8320    3.8280 C.ar    0  LIG0        0.1816
      9  N21       -2.4740   -0.6960    3.2070 N.ar    0  LIG0       -0.2193
     10  C36       -3.7990   -0.5130    3.3850 C.ar    0  LIG0        0.1518
     11  C43       -3.3360   -3.6090    5.1950 C.3     0  LIG0        0.2409
     12  O25       -2.0780   -3.8950    5.7910 O.3     0  LIG0       -0.3306
     13  C44       -1.6850   -5.1900    5.3950 C.3     0  LIG0        0.1801
     14  C40       -0.1790   -5.2740    5.3500 C.3     0  LIG0        0.1813
     15  O30        0.3110   -4.2710    4.5190 O.3     0  LIG0       -0.3112
     16  P46        1.5530   -4.5660    3.5280 P.3     0  LIG0        0.2189
     17  O28        2.5350   -5.4790    4.1920 O.3     0  LIG0       -0.4371
     18  O18        2.0570   -3.2350    3.0760 O.2     0  LIG0       -0.5170
     19  O32        0.8160   -5.2790    2.2540 O.3     0  LIG0       -0.2700
     20  P47        0.8060   -6.7850    1.6750 P.3     0  LIG0        0.2277
     21  O29        1.2720   -7.7750    2.7160 O.3     0  LIG0       -0.4368
     22  O19       -0.5830   -7.0370    1.1730 O.2     0  LIG0       -0.5168
     23  O31        1.7870   -6.7660    0.3960 O.3     0  LIG0       -0.2258
     24  P45        3.3980   -6.5090    0.2910 P.3     0  LIG0        0.5373
     25  O26        4.0580   -7.1310    1.5100 O.3     0  LIG0       -0.1143
     26  O27        3.8250   -7.2030   -0.9900 O.2     0  LIG0       -0.2221
     27  O17        3.5850   -5.0320    0.2110 O.3     0  LIG0       -0.1143
     28  C41       -2.3590   -5.4180    4.0510 C.3     0  LIG0        0.2161
     29  O23       -2.4720   -6.7830    3.6860 O.3     0  LIG0       -0.2175
     30  C42       -3.7050   -4.7970    4.3320 C.3     0  LIG0        0.2337
     31  O24       -4.5220   -5.6990    5.0850 O.3     0  LIG0       -0.2155
@<TRIPOS>BOND
     1    26    24    2
     2    27    24    1
     3    24    23    1
     4    24    25    1
     5    23    20    1
     6    22    20    2
     7    20    19    1
     8    20    21    1
     9     1     2    1
    10    19    16    1
    11     2     3   ar
    12     2    10   ar
    13    18    16    2
    14     9    10   ar
    15     9     8   ar
    16     3     4   ar
    17    10     6   ar
    18    16    17    1
    19    16    15    1
    20    29    28    1
    21     8     7   ar
    22    28    30    1
    23    28    13    1
    24     4     5   ar
    25     6     7   ar
    26     6     5   ar
    27    30    31    1
    28    30    11    1
    29     7    11    1
    30    15    14    1
    31    11    12    1
    32    14    13    1
    33    13    12    1
