@<TRIPOS>MOLECULE
/Users/xuhangdai/Desktop/Projects/OptimalTransport/extra_bio_ligands_boltz_af3/boltz_results_6ln3_ATP/6ln3_ATP_model_32_chainB.pdb
 31 33 0 0 0
SMALL
GASTEIGER

@<TRIPOS>ATOM
      1  N38       -1.4570   -5.2370    1.8750 N.pl3   0  LIG0       -0.1054
      2  C34       -1.4580   -5.9280    0.7030 C.ar    0  LIG0        0.1919
      3  N20       -2.0380   -7.1480    0.6450 N.ar    0  LIG0       -0.2040
      4  C33       -2.0410   -7.8360   -0.5230 C.ar    0  LIG0        0.2016
      5  N22       -1.4920   -7.3890   -1.6600 N.ar    0  LIG0       -0.2048
      6  C37       -0.9070   -6.1770   -1.6280 C.ar    0  LIG0        0.1692
      7  N39       -0.2890   -5.4790   -2.5920 N.ar    0  LIG0       -0.2693
      8  C35        0.1270   -4.2970   -2.0580 C.ar    0  LIG0        0.1816
      9  N21       -0.2190   -4.2350   -0.7680 N.ar    0  LIG0       -0.2193
     10  C36       -0.8580   -5.3840   -0.4710 C.ar    0  LIG0        0.1518
     11  C43       -0.1160   -5.9640   -3.9600 C.3     0  LIG0        0.2409
     12  O25        1.0170   -5.3540   -4.5580 O.3     0  LIG0       -0.3306
     13  C44        0.6050   -4.7040   -5.7390 C.3     0  LIG0        0.1801
     14  C40        1.4850   -3.5060   -5.9920 C.3     0  LIG0        0.1813
     15  O30        1.4850   -2.6840   -4.8610 O.3     0  LIG0       -0.3112
     16  P46        1.4300   -1.0770   -5.0170 P.3     0  LIG0        0.2189
     17  O28        2.3270   -0.6460   -6.1320 O.2     0  LIG0       -0.5170
     18  O18        1.6970   -0.4920   -3.6790 O.3     0  LIG0       -0.4371
     19  O32       -0.1470   -0.8390   -5.3680 O.3     0  LIG0       -0.2700
     20  P47       -0.9360   -0.2340   -6.6360 P.3     0  LIG0        0.2277
     21  O29       -0.0900   -0.2670   -7.8720 O.2     0  LIG0       -0.5168
     22  O19       -2.2170   -0.9920   -6.7370 O.3     0  LIG0       -0.4368
     23  O31       -1.3090    1.2770   -6.2290 O.3     0  LIG0       -0.2258
     24  P45       -0.4130    2.6350   -6.1530 P.3     0  LIG0        0.5373
     25  O26        0.8890    2.3900   -6.8770 O.2     0  LIG0       -0.2221
     26  O27       -1.2460    3.6970   -6.8460 O.3     0  LIG0       -0.1143
     27  O17       -0.2390    2.9280   -4.7120 O.3     0  LIG0       -0.1143
     28  C41       -0.8570   -4.3580   -5.5140 C.3     0  LIG0        0.2161
     29  O23       -1.5820   -4.1270   -6.7080 O.3     0  LIG0       -0.2175
     30  C42       -1.3190   -5.6070   -4.8110 C.3     0  LIG0        0.2337
     31  O24       -1.5590   -6.6510   -5.7590 O.3     0  LIG0       -0.2155
@<TRIPOS>BOND
     1    21    20    2
     2    25    24    2
     3    26    24    1
     4    22    20    1
     5    29    28    1
     6    20    23    1
     7    20    19    1
     8    23    24    1
     9    24    27    1
    10    17    16    2
    11    14    13    1
    12    14    15    1
    13    31    30    1
    14    13    28    1
    15    13    12    1
    16    28    30    1
    17    19    16    1
    18    16    15    1
    19    16    18    1
    20    30    11    1
    21    12    11    1
    22    11     7    1
    23     7     8   ar
    24     7     6   ar
    25     8     9   ar
    26     5     6   ar
    27     5     4   ar
    28     6    10   ar
    29     9    10   ar
    30     4     3   ar
    31    10     2   ar
    32     3     2   ar
    33     2     1    1
