@<TRIPOS>MOLECULE
/Users/xuhangdai/Desktop/Projects/OptimalTransport/extra_bio_ligands_boltz_af3/boltz_results_6ln3_ATP/6ln3_ATP_model_41_chainB.pdb
 31 33 0 0 0
SMALL
GASTEIGER

@<TRIPOS>ATOM
      1  N38       -1.8860   -6.1840    4.1310 N.pl3   0  LIG0       -0.1054
      2  C34       -1.9700   -6.0430    5.4850 C.ar    0  LIG0        0.1919
      3  N20       -1.9310   -7.1440    6.2760 N.ar    0  LIG0       -0.2040
      4  C33       -2.0170   -7.0070    7.6270 C.ar    0  LIG0        0.2016
      5  N22       -2.1470   -5.8270    8.2550 N.ar    0  LIG0       -0.2048
      6  C37       -2.1850   -4.7170    7.4880 C.ar    0  LIG0        0.1692
      7  N39       -2.3020   -3.4220    7.8240 N.ar    0  LIG0       -0.2693
      8  C35       -2.2820   -2.6760    6.6790 C.ar    0  LIG0        0.1816
      9  N21       -2.1580   -3.4830    5.6180 N.ar    0  LIG0       -0.2193
     10  C36       -2.0970   -4.7520    6.0840 C.ar    0  LIG0        0.1518
     11  C43       -2.4350   -2.9500    9.2010 C.3     0  LIG0        0.2409
     12  O25       -3.1100   -1.6970    9.2240 O.3     0  LIG0       -0.3306
     13  C44       -2.2900   -0.7590    9.8820 C.3     0  LIG0        0.1801
     14  C40       -2.5470    0.6210    9.3140 C.3     0  LIG0        0.1813
     15  O30       -2.3720    0.5900    7.9260 O.3     0  LIG0       -0.3112
     16  P46       -1.6510    1.8360    7.1760 P.3     0  LIG0        0.2189
     17  O28       -2.1400    3.1250    7.7570 O.3     0  LIG0       -0.4371
     18  O18       -1.8450    1.6320    5.7090 O.2     0  LIG0       -0.5170
     19  O32       -0.0750    1.5690    7.5100 O.3     0  LIG0       -0.2700
     20  P47        1.0340    2.4120    8.3220 P.3     0  LIG0        0.2277
     21  O29        0.3860    3.4010    9.2500 O.3     0  LIG0       -0.4368
     22  O19        1.9150    1.4030    8.9990 O.2     0  LIG0       -0.5168
     23  O31        1.9220    3.1550    7.1970 O.3     0  LIG0       -0.2258
     24  P45        1.5840    4.4340    6.2400 P.3     0  LIG0        0.5373
     25  O26        0.6300    5.3440    6.9850 O.3     0  LIG0       -0.1143
     26  O27        2.9280    5.1020    5.9930 O.3     0  LIG0       -0.1143
     27  O17        1.0070    3.8720    4.9840 O.2     0  LIG0       -0.2221
     28  C41       -0.8650   -1.2520    9.6780 C.3     0  LIG0        0.2161
     29  O23        0.0610   -0.7380   10.6170 O.3     0  LIG0       -0.2175
     30  C42       -1.0770   -2.7390    9.8450 C.3     0  LIG0        0.2337
     31  O24       -1.1470   -3.0740   11.2370 O.3     0  LIG0       -0.2155
@<TRIPOS>BOND
     1     1     2    1
     2    27    24    2
     3     2    10   ar
     4     2     3   ar
     5     9    10   ar
     6     9     8   ar
     7    18    16    2
     8    26    24    1
     9    10     6   ar
    10    24    25    1
    11    24    23    1
    12     3     4   ar
    13     8     7   ar
    14    16    19    1
    15    16    17    1
    16    16    15    1
    17    23    20    1
    18     6     7   ar
    19     6     5   ar
    20    19    20    1
    21     4     5   ar
    22     7    11    1
    23    15    14    1
    24    20    22    2
    25    20    21    1
    26    11    12    1
    27    11    30    1
    28    12    13    1
    29    14    13    1
    30    28    30    1
    31    28    13    1
    32    28    29    1
    33    30    31    1
