@<TRIPOS>MOLECULE
/Users/xuhangdai/Desktop/Projects/OptimalTransport/extra_bio_ligands_boltz_af3/boltz_results_6ln3_ATP/6ln3_ATP_model_13_chainB.pdb
 31 33 0 0 0
SMALL
GASTEIGER

@<TRIPOS>ATOM
      1  N38        4.2900    3.7250   -2.2130 N.pl3   0  LIG0       -0.1054
      2  C34        4.3590    5.0780   -2.1080 C.ar    0  LIG0        0.1919
      3  N20        4.7880    5.8100   -3.1600 N.ar    0  LIG0       -0.2040
      4  C33        4.8580    7.1580   -3.0580 C.ar    0  LIG0        0.2016
      5  N22        4.5280    7.8460   -1.9600 N.ar    0  LIG0       -0.2048
      6  C37        4.0990    7.1400   -0.8970 C.ar    0  LIG0        0.1692
      7  N39        3.7030    7.5430    0.3170 N.ar    0  LIG0       -0.2693
      8  C35        3.3500    6.4430    1.0390 C.ar    0  LIG0        0.1816
      9  N21        3.5190    5.3440    0.2980 N.ar    0  LIG0       -0.2193
     10  C36        3.9830    5.7430   -0.9030 C.ar    0  LIG0        0.1518
     11  C43        3.6800    8.9390    0.7430 C.3     0  LIG0        0.2409
     12  O25        3.7720    9.0230    2.1570 O.3     0  LIG0       -0.3306
     13  C44        2.6600    9.7400    2.6360 C.3     0  LIG0        0.1801
     14  C40        2.2960    9.2430    4.0130 C.3     0  LIG0        0.1813
     15  O30        2.1300    7.8590    3.9760 O.3     0  LIG0       -0.3112
     16  P46        0.9690    7.1580    4.8510 P.3     0  LIG0        0.2189
     17  O28        0.9080    7.7850    6.1970 O.3     0  LIG0       -0.4371
     18  O18        1.1990    5.6930    4.7910 O.2     0  LIG0       -0.5170
     19  O32       -0.3460    7.5060    3.9500 O.3     0  LIG0       -0.2700
     20  P47       -1.7510    8.2310    4.2690 P.3     0  LIG0        0.2277
     21  O29       -1.6690    9.0780    5.4950 O.3     0  LIG0       -0.4368
     22  O19       -2.1180    8.9620    3.0210 O.2     0  LIG0       -0.5168
     23  O31       -2.7870    7.0170    4.4680 O.3     0  LIG0       -0.2258
     24  P45       -3.1980    6.1370    5.7770 P.3     0  LIG0        0.5373
     25  O26       -2.3330    6.5580    6.9300 O.3     0  LIG0       -0.1143
     26  O27       -4.6640    6.4450    6.0230 O.3     0  LIG0       -0.1143
     27  O17       -2.9880    4.7250    5.3780 O.2     0  LIG0       -0.2221
     28  C41        1.5710    9.5240    1.6040 C.3     0  LIG0        0.2161
     29  O23        0.5460   10.4960    1.6430 O.3     0  LIG0       -0.2175
     30  C42        2.3890    9.6160    0.3400 C.3     0  LIG0        0.2337
     31  O24        2.6460   10.9820    0.0200 O.3     0  LIG0       -0.2155
@<TRIPOS>BOND
     1     3     4   ar
     2     3     2   ar
     3     4     5   ar
     4     1     2    1
     5     2    10   ar
     6     5     6   ar
     7    10     6   ar
     8    10     9   ar
     9     6     7   ar
    10    31    30    1
    11     9     8   ar
    12     7    11    1
    13     7     8   ar
    14    30    11    1
    15    30    28    1
    16    11    12    1
    17    28    29    1
    18    28    13    1
    19    12    13    1
    20    13    14    1
    21    22    20    2
    22    19    20    1
    23    19    16    1
    24    15    14    1
    25    15    16    1
    26    20    23    1
    27    20    21    1
    28    23    24    1
    29    18    16    2
    30    16    17    1
    31    27    24    2
    32    24    26    1
    33    24    25    1
