@<TRIPOS>MOLECULE
/Users/xuhangdai/Desktop/Projects/OptimalTransport/extra_bio_ligands_boltz_af3/boltz_results_6ln3_ATP/6ln3_ATP_model_48_chainB.pdb
 31 33 0 0 0
SMALL
GASTEIGER

@<TRIPOS>ATOM
      1  N38        0.1130    1.6500    4.1790 N.pl3   0  LIG0       -0.1054
      2  C34        1.3380    2.1140    4.5520 C.ar    0  LIG0        0.1919
      3  N20        1.7220    2.0280    5.8460 N.ar    0  LIG0       -0.2040
      4  C33        2.9420    2.4910    6.2180 C.ar    0  LIG0        0.2016
      5  N22        3.8240    3.0490    5.3770 N.ar    0  LIG0       -0.2048
      6  C37        3.4660    3.1460    4.0810 C.ar    0  LIG0        0.1692
      7  N39        4.1280    3.6460    3.0240 N.ar    0  LIG0       -0.2693
      8  C35        3.3380    3.5060    1.9210 C.ar    0  LIG0        0.1816
      9  N21        2.1790    2.9240    2.2650 N.ar    0  LIG0       -0.2193
     10  C36        2.2280    2.6910    3.5950 C.ar    0  LIG0        0.1518
     11  C43        5.4650    4.2330    3.1030 C.3     0  LIG0        0.2409
     12  O25        5.6630    5.1510    2.0390 O.3     0  LIG0       -0.3306
     13  C44        6.7950    4.7490    1.3030 C.3     0  LIG0        0.1801
     14  C40        6.6250    5.1530   -0.1430 C.3     0  LIG0        0.1813
     15  O30        5.4500    4.6030   -0.6450 O.3     0  LIG0       -0.3112
     16  P46        5.3590    4.1020   -2.1790 P.3     0  LIG0        0.2189
     17  O28        3.9060    3.8930   -2.4980 O.3     0  LIG0       -0.4371
     18  O18        6.1020    5.0330   -3.0470 O.2     0  LIG0       -0.5170
     19  O32        6.0490    2.6310   -2.1320 O.3     0  LIG0       -0.2700
     20  P47        7.5160    2.0520   -2.4670 P.3     0  LIG0        0.2277
     21  O29        7.9490    1.2010   -1.3020 O.3     0  LIG0       -0.4368
     22  O19        8.4530    3.1520   -2.8020 O.2     0  LIG0       -0.5168
     23  O31        7.3010    1.0850   -3.7390 O.3     0  LIG0       -0.2258
     24  P45        6.7130    1.3750   -5.2290 P.3     0  LIG0        0.5373
     25  O26        6.9870    2.8110   -5.5730 O.3     0  LIG0       -0.1143
     26  O27        7.4660    0.4280   -6.1530 O.2     0  LIG0       -0.2221
     27  O17        5.2690    1.0450   -5.1690 O.3     0  LIG0       -0.1143
     28  C41        6.8980    3.2470    1.5140 C.3     0  LIG0        0.2161
     29  O23        8.1820    2.7130    1.2570 O.3     0  LIG0       -0.2175
     30  C42        6.5370    3.1660    2.9790 C.3     0  LIG0        0.2337
     31  O24        7.6650    3.5170    3.7850 O.3     0  LIG0       -0.2155
@<TRIPOS>BOND
     1    26    24    2
     2    25    24    1
     3    24    27    1
     4    24    23    1
     5    23    20    1
     6    18    16    2
     7    22    20    2
     8    17    16    1
     9    20    19    1
    10    20    21    1
    11    16    19    1
    12    16    15    1
    13    15    14    1
    14    14    13    1
    15    29    28    1
    16    13    28    1
    17    13    12    1
    18    28    30    1
    19     8     9   ar
    20     8     7   ar
    21    12    11    1
    22     9    10   ar
    23    30    11    1
    24    30    31    1
    25     7    11    1
    26     7     6   ar
    27    10     6   ar
    28    10     2   ar
    29     6     5   ar
    30     1     2    1
    31     2     3   ar
    32     5     4   ar
    33     3     4   ar
