@<TRIPOS>MOLECULE
/Users/xuhangdai/Desktop/Projects/OptimalTransport/extra_bio_ligands_boltz_af3/boltz_results_6ln3_ATP/6ln3_ATP_model_22_chainB.pdb
 31 33 0 0 0
SMALL
GASTEIGER

@<TRIPOS>ATOM
      1  N38       -1.3770    5.7350    4.2630 N.pl3   0  LIG0       -0.1054
      2  C34       -1.5580    6.9650    3.7070 C.ar    0  LIG0        0.1919
      3  N20       -1.7020    8.0470    4.5060 N.ar    0  LIG0       -0.2040
      4  C33       -1.8830    9.2740    3.9550 C.ar    0  LIG0        0.2016
      5  N22       -1.9380    9.5040    2.6370 N.ar    0  LIG0       -0.2048
      6  C37       -1.7980    8.4420    1.8180 C.ar    0  LIG0        0.1692
      7  N39       -1.8040    8.3620    0.4780 N.ar    0  LIG0       -0.2693
      8  C35       -1.6110    7.0570    0.1290 C.ar    0  LIG0        0.1816
      9  N21       -1.4860    6.3060    1.2280 N.ar    0  LIG0       -0.2193
     10  C36       -1.5990    7.1330    2.2890 C.ar    0  LIG0        0.1518
     11  C43       -1.9930    9.5120   -0.3990 C.3     0  LIG0        0.2409
     12  O25       -2.5180    9.0940   -1.6520 O.3     0  LIG0       -0.3306
     13  C44       -1.6410    9.5220   -2.6680 C.3     0  LIG0        0.1801
     14  C40       -1.6860    8.5460   -3.8240 C.3     0  LIG0        0.1813
     15  O30       -1.4730    7.2540   -3.3390 O.3     0  LIG0       -0.3112
     16  P46       -0.5320    6.2220   -4.1590 P.3     0  LIG0        0.2189
     17  O28       -0.8810    6.2500   -5.6070 O.2     0  LIG0       -0.5170
     18  O18       -0.6240    4.9050   -3.4730 O.3     0  LIG0       -0.4371
     19  O32        0.9460    6.8470   -3.8650 O.3     0  LIG0       -0.2700
     20  P47        2.1110    7.4380   -4.8080 P.3     0  LIG0        0.2277
     21  O29        1.5570    8.0000   -6.0820 O.2     0  LIG0       -0.5168
     22  O19        2.8550    8.4340   -3.9800 O.3     0  LIG0       -0.4368
     23  O31        3.0900    6.1950   -5.0880 O.3     0  LIG0       -0.2258
     24  P45        3.0440    4.9920   -6.1910 P.3     0  LIG0        0.5373
     25  O26        1.8640    5.2110   -7.1020 O.2     0  LIG0       -0.2221
     26  O27        4.3610    5.0860   -6.9450 O.3     0  LIG0       -0.1143
     27  O17        2.9450    3.7280   -5.4150 O.3     0  LIG0       -0.1143
     28  C41       -0.2730    9.6260   -2.0090 C.3     0  LIG0        0.2161
     29  O23        0.6310   10.4700   -2.6990 O.3     0  LIG0       -0.2175
     30  C42       -0.6680   10.2020   -0.6710 C.3     0  LIG0        0.2337
     31  O24       -0.8730   11.6140   -0.7780 O.3     0  LIG0       -0.2155
@<TRIPOS>BOND
     1    25    24    2
     2    26    24    1
     3    24    27    1
     4    24    23    1
     5    21    20    2
     6    17    16    2
     7    23    20    1
     8    20    22    1
     9    20    19    1
    10    16    19    1
    11    16    18    1
    12    16    15    1
    13    14    15    1
    14    14    13    1
    15    29    28    1
    16    13    28    1
    17    13    12    1
    18    28    30    1
    19    12    11    1
    20    31    30    1
    21    30    11    1
    22    11     7    1
    23     8     7   ar
    24     8     9   ar
    25     7     6   ar
    26     9    10   ar
    27     6    10   ar
    28     6     5   ar
    29    10     2   ar
    30     5     4   ar
    31     2     1    1
    32     2     3   ar
    33     4     3   ar
