@<TRIPOS>MOLECULE
/Users/xuhangdai/Desktop/Projects/OptimalTransport/extra_bio_ligands_boltz_af3/boltz_results_6ln3_ATP/6ln3_ATP_model_2_chainB.pdb
 31 33 0 0 0
SMALL
GASTEIGER

@<TRIPOS>ATOM
      1  N38        4.7790   -0.7870   -2.1520 N.pl3   0  LIG0       -0.1054
      2  C34        5.1170   -2.0010   -2.6670 C.ar    0  LIG0        0.1919
      3  N20        6.4070   -2.4010   -2.6340 N.ar    0  LIG0       -0.2040
      4  C33        6.7490   -3.6090   -3.1470 C.ar    0  LIG0        0.2016
      5  N22        5.8800   -4.4590   -3.7080 N.ar    0  LIG0       -0.2048
      6  C37        4.5850   -4.0820   -3.7530 C.ar    0  LIG0        0.1692
      7  N39        3.5070   -4.7130   -4.2420 N.ar    0  LIG0       -0.2693
      8  C35        2.4210   -3.9170   -4.0400 C.ar    0  LIG0        0.1816
      9  N21        2.7960   -2.7850   -3.4320 N.ar    0  LIG0       -0.2193
     10  C36        4.1290   -2.8580   -3.2430 C.ar    0  LIG0        0.1518
     11  C43        3.5560   -6.0260   -4.8780 C.3     0  LIG0        0.2409
     12  O25        2.4750   -6.1720   -5.7820 O.3     0  LIG0       -0.3306
     13  C44        1.7330   -7.3080   -5.4060 C.3     0  LIG0        0.1801
     14  C40        0.2820   -7.1070   -5.7690 C.3     0  LIG0        0.1813
     15  O30       -0.1640   -5.9130   -5.2100 O.3     0  LIG0       -0.3112
     16  P46       -1.6500   -5.8140   -4.5880 P.3     0  LIG0        0.2189
     17  O28       -2.6250   -6.5280   -5.4640 O.2     0  LIG0       -0.5170
     18  O18       -1.9090   -4.3720   -4.3300 O.3     0  LIG0       -0.4371
     19  O32       -1.4740   -6.5450   -3.1460 O.3     0  LIG0       -0.2700
     20  P47       -1.8990   -7.9890   -2.5840 P.3     0  LIG0        0.2277
     21  O29       -2.2910   -8.9090   -3.6990 O.2     0  LIG0       -0.5168
     22  O19       -0.7660   -8.4840   -1.7430 O.3     0  LIG0       -0.4368
     23  O31       -3.1320   -7.7000   -1.5970 O.3     0  LIG0       -0.2258
     24  P45       -4.6200   -7.1160   -1.8710 P.3     0  LIG0        0.5373
     25  O26       -4.9810   -7.3900   -3.3090 O.2     0  LIG0       -0.2221
     26  O27       -5.5260   -7.8720   -0.9150 O.3     0  LIG0       -0.1143
     27  O17       -4.5530   -5.6700   -1.5380 O.3     0  LIG0       -0.1143
     28  C41        1.9720   -7.4710   -3.9140 C.3     0  LIG0        0.2161
     29  O23        1.7100   -8.7740   -3.4330 O.3     0  LIG0       -0.2175
     30  C42        3.4400   -7.1320   -3.8510 C.3     0  LIG0        0.2337
     31  O24        4.2200   -8.2580   -4.2720 O.3     0  LIG0       -0.2155
@<TRIPOS>BOND
     1    12    13    1
     2    12    11    1
     3    14    13    1
     4    14    15    1
     5    17    16    2
     6    13    28    1
     7    15    16    1
     8    11     7    1
     9    11    30    1
    10    16    18    1
    11    16    19    1
    12    31    30    1
    13     7     8   ar
    14     7     6   ar
    15     8     9   ar
    16    28    30    1
    17    28    29    1
    18     6     5   ar
    19     6    10   ar
    20     5     4   ar
    21    21    20    2
    22     9    10   ar
    23    25    24    2
    24    10     2   ar
    25     4     3   ar
    26    19    20    1
    27     2     3   ar
    28     2     1    1
    29    20    22    1
    30    20    23    1
    31    24    23    1
    32    24    27    1
    33    24    26    1
