@<TRIPOS>MOLECULE
/Users/xuhangdai/Desktop/Projects/OptimalTransport/extra_bio_ligands_boltz_af3/boltz_results_6ln3_ATP/6ln3_ATP_model_45_chainB.pdb
 31 33 0 0 0
SMALL
GASTEIGER

@<TRIPOS>ATOM
      1  N38       -4.7840    3.6260    1.0020 N.pl3   0  LIG0       -0.1054
      2  C34       -5.9370    3.1930    0.4210 C.ar    0  LIG0        0.1919
      3  N20       -6.8900    4.0910    0.0770 N.ar    0  LIG0       -0.2040
      4  C33       -8.0380    3.6620   -0.5040 C.ar    0  LIG0        0.2016
      5  N22       -8.3160    2.3780   -0.7650 N.ar    0  LIG0       -0.2048
      6  C37       -7.3830    1.4640   -0.4320 C.ar    0  LIG0        0.1692
      7  N39       -7.3760    0.1290   -0.5740 N.ar    0  LIG0       -0.2693
      8  C35       -6.1940   -0.3430   -0.0860 C.ar    0  LIG0        0.1816
      9  N21       -5.4500    0.6740    0.3640 N.ar    0  LIG0       -0.2193
     10  C36       -6.1580    1.8040    0.1660 C.ar    0  LIG0        0.1518
     11  C43       -8.4830   -0.6290   -1.1530 C.3     0  LIG0        0.2409
     12  O25       -8.4760   -1.9630   -0.6680 O.3     0  LIG0       -0.3306
     13  C44       -8.4060   -2.8350   -1.7720 C.3     0  LIG0        0.1801
     14  C40       -7.6860   -4.1000   -1.3750 C.3     0  LIG0        0.1813
     15  O30       -6.4500   -3.7660   -0.8320 O.3     0  LIG0       -0.3112
     16  P46       -5.1560   -4.6780   -1.1330 P.3     0  LIG0        0.2189
     17  O28       -5.5260   -6.1220   -1.1560 O.2     0  LIG0       -0.5170
     18  O18       -4.1120   -4.2650   -0.1560 O.3     0  LIG0       -0.4371
     19  O32       -4.6850   -4.1410   -2.5960 O.3     0  LIG0       -0.2700
     20  P47       -4.8660   -4.7050   -4.0920 P.3     0  LIG0        0.2277
     21  O29       -5.8870   -5.8000   -4.1340 O.3     0  LIG0       -0.4368
     22  O19       -5.1660   -3.5320   -4.9700 O.2     0  LIG0       -0.5168
     23  O31       -3.3950   -5.2320   -4.4780 O.3     0  LIG0       -0.2258
     24  P45       -2.6420   -6.6170   -4.0510 P.3     0  LIG0        0.5373
     25  O26       -3.4610   -7.7620   -4.6160 O.3     0  LIG0       -0.1143
     26  O27       -1.2740   -6.5320   -4.6990 O.2     0  LIG0       -0.2221
     27  O17       -2.5550   -6.6350   -2.5730 O.3     0  LIG0       -0.1143
     28  C41       -7.6990   -2.0410   -2.8610 C.3     0  LIG0        0.2161
     29  O23       -7.9020   -2.5420   -4.1700 O.3     0  LIG0       -0.2175
     30  C42       -8.3540   -0.7000   -2.6620 C.3     0  LIG0        0.2337
     31  O24       -9.6530   -0.6900   -3.2580 O.3     0  LIG0       -0.2155
@<TRIPOS>BOND
     1    22    20    2
     2    26    24    2
     3    25    24    1
     4    23    20    1
     5    23    24    1
     6    29    28    1
     7    21    20    1
     8    20    19    1
     9    24    27    1
    10    31    30    1
    11    28    30    1
    12    28    13    1
    13    30    11    1
    14    19    16    1
    15    13    14    1
    16    13    12    1
    17    14    15    1
    18    17    16    2
    19    11    12    1
    20    11     7    1
    21    16    15    1
    22    16    18    1
    23     5     4   ar
    24     5     6   ar
    25     7     6   ar
    26     7     8   ar
    27     4     3   ar
    28     6    10   ar
    29     8     9   ar
    30     3     2   ar
    31    10     9   ar
    32    10     2   ar
    33     2     1    1
