@<TRIPOS>MOLECULE
/Users/xuhangdai/Desktop/Projects/OptimalTransport/extra_bio_ligands_boltz_af3/boltz_results_6ln3_ATP/6ln3_ATP_model_36_chainB.pdb
 31 33 0 0 0
SMALL
GASTEIGER

@<TRIPOS>ATOM
      1  N38       -3.3770    4.9480   -2.1420 N.pl3   0  LIG0       -0.1054
      2  C34       -4.5210    5.5040   -1.6590 C.ar    0  LIG0        0.1919
      3  N20       -5.6040    5.6020   -2.4620 N.ar    0  LIG0       -0.2040
      4  C33       -6.7440    6.1560   -1.9840 C.ar    0  LIG0        0.2016
      5  N22       -6.8870    6.6310   -0.7400 N.ar    0  LIG0       -0.2048
      6  C37       -5.8220    6.5430    0.0820 C.ar    0  LIG0        0.1692
      7  N39       -5.6680    6.9250    1.3580 N.ar    0  LIG0       -0.2693
      8  C35       -4.4000    6.6110    1.7430 C.ar    0  LIG0        0.1816
      9  N21       -3.7470    6.0390    0.7270 N.ar    0  LIG0       -0.2193
     10  C36       -4.5990    5.9830   -0.3160 C.ar    0  LIG0        0.1518
     11  C43       -6.7210    7.5710    2.1420 C.3     0  LIG0        0.2409
     12  O25       -6.1570    8.3390    3.1910 O.3     0  LIG0       -0.3306
     13  C44       -6.6830    7.8780    4.4140 C.3     0  LIG0        0.1801
     14  C40       -5.6610    8.0720    5.5040 C.3     0  LIG0        0.1813
     15  O30       -4.4770    7.4470    5.1250 O.3     0  LIG0       -0.3112
     16  P46       -3.5360    6.7400    6.2270 P.3     0  LIG0        0.2189
     17  O28       -3.5590    7.5110    7.5040 O.3     0  LIG0       -0.4371
     18  O18       -2.2110    6.5330    5.5850 O.2     0  LIG0       -0.5170
     19  O32       -4.2290    5.2760    6.3860 O.3     0  LIG0       -0.2700
     20  P47       -5.2120    4.6260    7.4790 P.3     0  LIG0        0.2277
     21  O29       -5.7260    5.6750    8.4240 O.3     0  LIG0       -0.4368
     22  O19       -6.2640    3.8740    6.7360 O.2     0  LIG0       -0.5168
     23  O31       -4.2910    3.5410    8.2390 O.3     0  LIG0       -0.2258
     24  P45       -3.0620    3.7520    9.2950 P.3     0  LIG0        0.5373
     25  O26       -3.5200    4.7400   10.3530 O.3     0  LIG0       -0.1143
     26  O27       -2.8170    2.3730    9.8840 O.3     0  LIG0       -0.1143
     27  O17       -1.8970    4.2320    8.5160 O.2     0  LIG0       -0.2221
     28  C41       -7.0520    6.4250    4.1670 C.3     0  LIG0        0.2161
     29  O23       -7.9950    5.9090    5.0880 O.3     0  LIG0       -0.2175
     30  C42       -7.6240    6.5360    2.7780 C.3     0  LIG0        0.2337
     31  O24       -8.9640    7.0370    2.8360 O.3     0  LIG0       -0.2155
@<TRIPOS>BOND
     1     3     4   ar
     2     3     2   ar
     3     1     2    1
     4     4     5   ar
     5     2    10   ar
     6     5     6   ar
     7    10     6   ar
     8    10     9   ar
     9     6     7   ar
    10     9     8   ar
    11     7     8   ar
    12     7    11    1
    13    11    30    1
    14    11    12    1
    15    30    31    1
    16    30    28    1
    17    12    13    1
    18    28    13    1
    19    28    29    1
    20    13    14    1
    21    15    14    1
    22    15    16    1
    23    18    16    2
    24    16    19    1
    25    16    17    1
    26    19    20    1
    27    22    20    2
    28    20    23    1
    29    20    21    1
    30    23    24    1
    31    27    24    2
    32    24    26    1
    33    24    25    1
