@<TRIPOS>MOLECULE
/Users/xuhangdai/Desktop/Projects/OptimalTransport/extra_bio_ligands_boltz_af3/boltz_results_6ln3_ATP/6ln3_ATP_model_8_chainB.pdb
 31 33 0 0 0
SMALL
GASTEIGER

@<TRIPOS>ATOM
      1  N38        1.4880    3.8110    5.5830 N.pl3   0  LIG0       -0.1054
      2  C34        0.6580    4.0530    6.6360 C.ar    0  LIG0        0.1919
      3  N20        0.5540    5.3100    7.1280 N.ar    0  LIG0       -0.2040
      4  C33       -0.2720    5.5530    8.1730 C.ar    0  LIG0        0.2016
      5  N22       -1.0160    4.6200    8.7800 N.ar    0  LIG0       -0.2048
      6  C37       -0.9290    3.3580    8.3070 C.ar    0  LIG0        0.1692
      7  N39       -1.5450    2.2300    8.6970 N.ar    0  LIG0       -0.2693
      8  C35       -1.1300    1.2160    7.8900 C.ar    0  LIG0        0.1816
      9  N21       -0.2560    1.6820    6.9930 N.ar    0  LIG0       -0.2193
     10  C36       -0.1090    3.0040    7.2250 C.ar    0  LIG0        0.1518
     11  C43       -2.4910    2.1700    9.8070 C.3     0  LIG0        0.2409
     12  O25       -2.5420    0.8540   10.3340 O.3     0  LIG0       -0.3306
     13  C44       -3.8770    0.4030   10.2730 C.3     0  LIG0        0.1801
     14  C40       -3.8940   -1.0940   10.0880 C.3     0  LIG0        0.1813
     15  O30       -3.1210   -1.4270    8.9800 O.3     0  LIG0       -0.3112
     16  P46       -3.5510   -2.6530    8.0160 P.3     0  LIG0        0.2189
     17  O28       -4.0780   -3.7870    8.8300 O.3     0  LIG0       -0.4371
     18  O18       -2.3920   -2.9350    7.1330 O.2     0  LIG0       -0.5170
     19  O32       -4.7070   -1.9730    7.0970 O.3     0  LIG0       -0.2700
     20  P47       -6.3070   -2.0890    7.0540 P.3     0  LIG0        0.2277
     21  O29       -6.8240   -2.7780    8.2840 O.3     0  LIG0       -0.4368
     22  O19       -6.8300   -0.7100    6.8390 O.2     0  LIG0       -0.5168
     23  O31       -6.6150   -2.9410    5.7200 O.3     0  LIG0       -0.2258
     24  P45       -6.3360   -4.5100    5.3660 P.3     0  LIG0        0.5373
     25  O26       -6.6250   -5.3220    6.6120 O.3     0  LIG0       -0.1143
     26  O27       -7.3060   -4.8390    4.2470 O.2     0  LIG0       -0.2221
     27  O17       -4.9270   -4.6040    4.9190 O.3     0  LIG0       -0.1143
     28  C41       -4.5100    1.1700    9.1240 C.3     0  LIG0        0.2161
     29  O23       -5.9220    1.2200    9.1820 O.3     0  LIG0       -0.2175
     30  C42       -3.8900    2.5270    9.3440 C.3     0  LIG0        0.2337
     31  O24       -4.5750    3.2250   10.3850 O.3     0  LIG0       -0.2155
@<TRIPOS>BOND
     1    26    24    2
     2    27    24    1
     3    24    23    1
     4    24    25    1
     5     1     2    1
     6    23    20    1
     7     2     3   ar
     8     2    10   ar
     9    22    20    2
    10     9    10   ar
    11     9     8   ar
    12    20    19    1
    13    20    21    1
    14    19    16    1
    15     3     4   ar
    16    18    16    2
    17    10     6   ar
    18     8     7   ar
    19    16    17    1
    20    16    15    1
    21     4     5   ar
    22     6     7   ar
    23     6     5   ar
    24     7    11    1
    25    15    14    1
    26    28    29    1
    27    28    30    1
    28    28    13    1
    29    30    11    1
    30    30    31    1
    31    11    12    1
    32    14    13    1
    33    13    12    1
