@<TRIPOS>MOLECULE
/Users/xuhangdai/Desktop/Projects/OptimalTransport/extra_bio_ligands_boltz_af3/boltz_results_6ln3_ATP/6ln3_ATP_model_35_chainB.pdb
 31 33 0 0 0
SMALL
GASTEIGER

@<TRIPOS>ATOM
      1  N38        0.3940    1.9640   -5.8760 N.pl3   0  LIG0       -0.1054
      2  C34        1.6430    2.1160   -6.4070 C.ar    0  LIG0        0.1919
      3  N20        1.7910    2.7230   -7.6090 N.ar    0  LIG0       -0.2040
      4  C33        3.0350    2.8750   -8.1390 C.ar    0  LIG0        0.2016
      5  N22        4.1600    2.4520   -7.5450 N.ar    0  LIG0       -0.2048
      6  C37        4.0380    1.8430   -6.3470 C.ar    0  LIG0        0.1692
      7  N39        4.9680    1.3270   -5.5260 N.ar    0  LIG0       -0.2693
      8  C35        4.3350    0.8270   -4.4230 C.ar    0  LIG0        0.1816
      9  N21        3.0150    1.0210   -4.5340 N.ar    0  LIG0       -0.2193
     10  C36        2.8000    1.6450   -5.7120 C.ar    0  LIG0        0.1518
     11  C43        6.4020    1.3160   -5.8240 C.3     0  LIG0        0.2409
     12  O25        7.0320    0.2490   -5.1370 O.3     0  LIG0       -0.3306
     13  C44        8.0560    0.7840   -4.3270 C.3     0  LIG0        0.1801
     14  C40        8.2250   -0.0700   -3.0920 C.3     0  LIG0        0.1813
     15  O30        6.9960   -0.1970   -2.4530 O.3     0  LIG0       -0.3112
     16  P46        6.9150   -0.1800   -0.8390 P.3     0  LIG0        0.2189
     17  O28        8.0660   -0.9270   -0.2540 O.3     0  LIG0       -0.4371
     18  O18        5.5510   -0.6590   -0.4730 O.2     0  LIG0       -0.5170
     19  O32        6.9830    1.4170   -0.4960 O.3     0  LIG0       -0.2700
     20  P47        8.1580    2.3780    0.0520 P.3     0  LIG0        0.2277
     21  O29        9.4970    1.6950   -0.0480 O.3     0  LIG0       -0.4368
     22  O19        8.0630    3.6710   -0.6990 O.2     0  LIG0       -0.5168
     23  O31        7.7670    2.6970    1.5830 O.3     0  LIG0       -0.2258
     24  P45        7.5700    1.6870    2.8470 P.3     0  LIG0        0.5373
     25  O26        8.7450    0.7260    2.8700 O.3     0  LIG0       -0.1143
     26  O27        7.5690    2.5870    4.0750 O.3     0  LIG0       -0.1143
     27  O17        6.2620    1.0140    2.6630 O.2     0  LIG0       -0.2221
     28  C41        7.6280    2.2100   -4.0250 C.3     0  LIG0        0.2161
     29  O23        8.6920    3.0580   -3.6310 O.3     0  LIG0       -0.2175
     30  C42        7.0630    2.6030   -5.3660 C.3     0  LIG0        0.2337
     31  O24        8.1220    2.9430   -6.2650 O.3     0  LIG0       -0.2155
@<TRIPOS>BOND
     1     4     3   ar
     2     4     5   ar
     3     3     2   ar
     4     5     6   ar
     5     2     1    1
     6     2    10   ar
     7     6    10   ar
     8     6     7   ar
     9    31    30    1
    10    11     7    1
    11    11    30    1
    12    11    12    1
    13    10     9   ar
    14     7     8   ar
    15    30    28    1
    16    12    13    1
    17     9     8   ar
    18    13    28    1
    19    13    14    1
    20    28    29    1
    21    14    15    1
    22    15    16    1
    23    16    19    1
    24    16    18    2
    25    16    17    1
    26    22    20    2
    27    19    20    1
    28    21    20    1
    29    20    23    1
    30    23    24    1
    31    27    24    2
    32    24    25    1
    33    24    26    1
