@<TRIPOS>MOLECULE
/Users/xuhangdai/Desktop/Projects/OptimalTransport/extra_bio_ligands_boltz_af3/boltz_results_6ln3_ATP/6ln3_ATP_model_14_chainB.pdb
 31 33 0 0 0
SMALL
GASTEIGER

@<TRIPOS>ATOM
      1  N38        4.8370    2.6480    1.7560 N.pl3   0  LIG0       -0.1054
      2  C34        5.0680    3.5420    2.7550 C.ar    0  LIG0        0.1919
      3  N20        6.2900    4.1080    2.8710 N.ar    0  LIG0       -0.2040
      4  C33        6.5250    4.9970    3.8660 C.ar    0  LIG0        0.2016
      5  N22        5.6160    5.3660    4.7730 N.ar    0  LIG0       -0.2048
      6  C37        4.3910    4.8160    4.6770 C.ar    0  LIG0        0.1692
      7  N39        3.2940    4.9930    5.4260 N.ar    0  LIG0       -0.2693
      8  C35        2.3000    4.2120    4.9170 C.ar    0  LIG0        0.1816
      9  N21        2.7530    3.5420    3.8540 N.ar    0  LIG0       -0.2193
     10  C36        4.0430    3.8930    3.6820 C.ar    0  LIG0        0.1518
     11  C43        3.2440    5.8810    6.5890 C.3     0  LIG0        0.2409
     12  O25        2.2430    5.4470    7.4940 O.3     0  LIG0       -0.3306
     13  C44        1.3470    6.5100    7.7080 C.3     0  LIG0        0.1801
     14  C40       -0.0270    5.9640    7.9970 C.3     0  LIG0        0.1813
     15  O30       -0.4030    5.1070    6.9660 O.3     0  LIG0       -0.3112
     16  P46       -1.9190    5.1070    6.4060 P.3     0  LIG0        0.2189
     17  O28       -2.8780    5.2540    7.5370 O.3     0  LIG0       -0.4371
     18  O18       -2.0640    3.8990    5.5580 O.2     0  LIG0       -0.5170
     19  O32       -1.9420    6.4020    5.4170 O.3     0  LIG0       -0.2700
     20  P47       -2.5400    7.8910    5.5390 P.3     0  LIG0        0.2277
     21  O29       -2.9110    8.1980    6.9570 O.3     0  LIG0       -0.4368
     22  O19       -1.5350    8.8150    4.9380 O.2     0  LIG0       -0.5168
     23  O31       -3.8280    7.9180    4.5760 O.3     0  LIG0       -0.2258
     24  P45       -5.1850    7.0380    4.5730 P.3     0  LIG0        0.5373
     25  O26       -5.5000    6.6580    5.9950 O.3     0  LIG0       -0.1143
     26  O27       -6.2390    7.9580    3.9850 O.3     0  LIG0       -0.1143
     27  O17       -4.9210    5.8750    3.6920 O.2     0  LIG0       -0.2221
     28  C41        1.4200    7.3560    6.4470 C.3     0  LIG0        0.2161
     29  O23        0.9660    8.6830    6.6210 O.3     0  LIG0       -0.2175
     30  C42        2.9000    7.2980    6.1810 C.3     0  LIG0        0.2337
     31  O24        3.5890    8.2240    7.0290 O.3     0  LIG0       -0.2155
@<TRIPOS>BOND
     1     1     2    1
     2     2     3   ar
     3     2    10   ar
     4     3     4   ar
     5    10     9   ar
     6    10     6   ar
     7    27    24    2
     8     9     8   ar
     9     4     5   ar
    10    26    24    1
    11    24    23    1
    12    24    25    1
    13    23    20    1
    14     6     5   ar
    15     6     7   ar
    16     8     7   ar
    17    22    20    2
    18    19    20    1
    19    19    16    1
    20     7    11    1
    21    20    21    1
    22    18    16    2
    23    30    28    1
    24    30    11    1
    25    30    31    1
    26    16    15    1
    27    16    17    1
    28    28    29    1
    29    28    13    1
    30    11    12    1
    31    15    14    1
    32    12    13    1
    33    13    14    1
