@<TRIPOS>MOLECULE
/Users/xuhangdai/Desktop/Projects/OptimalTransport/extra_bio_ligands_boltz_af3/boltz_results_6ln3_ATP/6ln3_ATP_model_40_chainB.pdb
 31 33 0 0 0
SMALL
GASTEIGER

@<TRIPOS>ATOM
      1  N38        5.7360    4.6200   -0.6930 N.pl3   0  LIG0       -0.1054
      2  C34        6.9320    4.1370   -0.2540 C.ar    0  LIG0        0.1919
      3  N20        7.9840    4.9780   -0.1200 N.ar    0  LIG0       -0.2040
      4  C33        9.1750    4.5010    0.3180 C.ar    0  LIG0        0.2016
      5  N22        9.4000    3.2170    0.6320 N.ar    0  LIG0       -0.2048
      6  C37        8.3680    2.3570    0.5050 C.ar    0  LIG0        0.1692
      7  N39        8.2900    1.0390    0.7420 N.ar    0  LIG0       -0.2693
      8  C35        7.0200    0.6290    0.4670 C.ar    0  LIG0        0.1816
      9  N21        6.2880    1.6710    0.0580 N.ar    0  LIG0       -0.2193
     10  C36        7.0960    2.7540    0.0680 C.ar    0  LIG0        0.1518
     11  C43        9.4190    0.2290    1.2010 C.3     0  LIG0        0.2409
     12  O25        9.2290   -1.1270    0.8320 O.3     0  LIG0       -0.3306
     13  C44        9.2810   -1.9190    1.9940 C.3     0  LIG0        0.1801
     14  C40        8.4010   -3.1350    1.8220 C.3     0  LIG0        0.1813
     15  O30        7.1180   -2.7240    1.4570 O.3     0  LIG0       -0.3112
     16  P46        5.8250   -3.5550    1.9570 P.3     0  LIG0        0.2189
     17  O28        6.1090   -5.0140    1.9240 O.3     0  LIG0       -0.4371
     18  O18        4.6640   -3.0660    1.1630 O.2     0  LIG0       -0.5170
     19  O32        5.6530   -2.9980    3.4820 O.3     0  LIG0       -0.2700
     20  P47        5.8050   -3.6540    4.9430 P.3     0  LIG0        0.2277
     21  O29        6.4520   -4.9970    4.8790 O.2     0  LIG0       -0.5168
     22  O19        6.5150   -2.6490    5.7850 O.3     0  LIG0       -0.4368
     23  O31        4.2840   -3.7670    5.4820 O.3     0  LIG0       -0.2258
     24  P45        3.1120   -4.8470    5.1240 P.3     0  LIG0        0.5373
     25  O26        3.7510   -6.2140    5.0450 O.3     0  LIG0       -0.1143
     26  O27        2.1330   -4.7550    6.2820 O.3     0  LIG0       -0.1143
     27  O17        2.5030   -4.4060    3.8530 O.2     0  LIG0       -0.2221
     28  C41        8.8410   -1.0040    3.1230 C.3     0  LIG0        0.2161
     29  O23        9.2480   -1.4380    4.4040 O.3     0  LIG0       -0.2175
     30  C42        9.5420    0.2700    2.7090 C.3     0  LIG0        0.2337
     31  O24       10.9210    0.2160    3.0790 O.3     0  LIG0       -0.2155
@<TRIPOS>BOND
     1     1     2    1
     2     2     3   ar
     3     2    10   ar
     4     3     4   ar
     5     9    10   ar
     6     9     8   ar
     7    10     6   ar
     8     4     5   ar
     9     8     7   ar
    10     6     5   ar
    11     6     7   ar
    12     7    11    1
    13    12    11    1
    14    12    13    1
    15    18    16    2
    16    11    30    1
    17    15    14    1
    18    15    16    1
    19    14    13    1
    20    17    16    1
    21    16    19    1
    22    13    28    1
    23    30    31    1
    24    30    28    1
    25    28    29    1
    26    19    20    1
    27    27    24    2
    28    21    20    2
    29    20    23    1
    30    20    22    1
    31    25    24    1
    32    24    23    1
    33    24    26    1
