@<TRIPOS>MOLECULE
/Users/xuhangdai/Desktop/Projects/OptimalTransport/extra_bio_ligands_boltz_af3/boltz_results_6ln3_ATP/6ln3_ATP_model_34_chainB.pdb
 31 33 0 0 0
SMALL
GASTEIGER

@<TRIPOS>ATOM
      1  N38       -1.6060   -6.0570   -2.3510 N.pl3   0  LIG0       -0.1054
      2  C34       -2.8160   -6.6450   -2.5510 C.ar    0  LIG0        0.1919
      3  N20       -2.9110   -7.9930   -2.5390 N.ar    0  LIG0       -0.2040
      4  C33       -4.1150   -8.5820   -2.7370 C.ar    0  LIG0        0.2016
      5  N22       -5.2530   -7.9120   -2.9560 N.ar    0  LIG0       -0.2048
      6  C37       -5.1880   -6.5670   -2.9720 C.ar    0  LIG0        0.1692
      7  N39       -6.1460   -5.6440   -3.1590 N.ar    0  LIG0       -0.2693
      8  C35       -5.5710   -4.4140   -3.0760 C.ar    0  LIG0        0.1816
      9  N21       -4.2590   -4.5410   -2.8380 N.ar    0  LIG0       -0.2193
     10  C36       -3.9920   -5.8600   -2.7710 C.ar    0  LIG0        0.1518
     11  C43       -7.5490   -5.9740   -3.4130 C.3     0  LIG0        0.2409
     12  O25       -8.1900   -4.9100   -4.1010 O.3     0  LIG0       -0.3306
     13  C44       -9.3080   -4.5000   -3.3480 C.3     0  LIG0        0.1801
     14  C40       -9.5630   -3.0280   -3.5770 C.3     0  LIG0        0.1813
     15  O30       -8.3940   -2.3080   -3.3070 O.3     0  LIG0       -0.3112
     16  P46       -8.4840   -0.8880   -2.5390 P.3     0  LIG0        0.2189
     17  O28       -9.6110   -0.0800   -3.0970 O.2     0  LIG0       -0.5170
     18  O18       -7.1250   -0.2760   -2.5920 O.3     0  LIG0       -0.4371
     19  O32       -8.7700   -1.3670   -1.0070 O.3     0  LIG0       -0.2700
     20  P47       -9.9560   -1.0840    0.0440 P.3     0  LIG0        0.2277
     21  O29      -11.2300   -0.7160   -0.6540 O.2     0  LIG0       -0.5168
     22  O19      -10.0510   -2.3100    0.8990 O.3     0  LIG0       -0.4368
     23  O31       -9.4130    0.1170    0.9730 O.3     0  LIG0       -0.2258
     24  P45       -9.2900    1.7200    0.6890 P.3     0  LIG0        0.5373
     25  O26      -10.3720    2.1080   -0.2950 O.2     0  LIG0       -0.2221
     26  O27       -9.4960    2.3760    2.0470 O.3     0  LIG0       -0.1143
     27  O17       -7.9130    1.9580    0.1720 O.3     0  LIG0       -0.1143
     28  C41       -8.9710   -4.8490   -1.9090 C.3     0  LIG0        0.2161
     29  O23      -10.1020   -4.9440   -1.0620 O.3     0  LIG0       -0.2175
     30  C42       -8.3000   -6.1850   -2.1150 C.3     0  LIG0        0.2337
     31  O24       -9.2850   -7.2080   -2.2900 O.3     0  LIG0       -0.2155
@<TRIPOS>BOND
     1    12    11    1
     2    12    13    1
     3    14    13    1
     4    14    15    1
     5    11     7    1
     6    11    30    1
     7    13    28    1
     8    15    16    1
     9     7     8   ar
    10     7     6   ar
    11    17    16    2
    12     8     9   ar
    13     6     5   ar
    14     6    10   ar
    15     5     4   ar
    16     9    10   ar
    17    10     2   ar
    18     4     3   ar
    19    18    16    1
    20     2     3   ar
    21     2     1    1
    22    16    19    1
    23    31    30    1
    24    30    28    1
    25    28    29    1
    26    19    20    1
    27    21    20    2
    28    25    24    2
    29    20    22    1
    30    20    23    1
    31    27    24    1
    32    24    23    1
    33    24    26    1
