@<TRIPOS>MOLECULE
/Users/xuhangdai/Desktop/Projects/OptimalTransport/extra_bio_ligands_boltz_af3/boltz_results_6ln3_ATP/6ln3_ATP_model_16_chainB.pdb
 31 33 0 0 0
SMALL
GASTEIGER

@<TRIPOS>ATOM
      1  N38       -1.7090    1.3540    5.6660 N.pl3   0  LIG0       -0.1054
      2  C34       -3.0040    1.5880    6.0140 C.ar    0  LIG0        0.1919
      3  N20       -3.2780    2.1670    7.2060 N.ar    0  LIG0       -0.2040
      4  C33       -4.5650    2.4040    7.5550 C.ar    0  LIG0        0.2016
      5  N22       -5.6200    2.0940    6.7900 N.ar    0  LIG0       -0.2048
      6  C37       -5.3760    1.5150    5.5980 C.ar    0  LIG0        0.1692
      7  N39       -6.2150    1.1020    4.6320 N.ar    0  LIG0       -0.2693
      8  C35       -5.4690    0.5900    3.6130 C.ar    0  LIG0        0.1816
      9  N21       -4.1700    0.6710    3.9190 N.ar    0  LIG0       -0.2193
     10  C36       -4.0790    1.2350    5.1410 C.ar    0  LIG0        0.1518
     11  C43       -7.6710    1.2060    4.7230 C.3     0  LIG0        0.2409
     12  O25       -8.2900    0.2370    3.8860 O.3     0  LIG0       -0.3306
     13  C44       -9.1380    0.9030    2.9780 C.3     0  LIG0        0.1801
     14  C40       -9.2030    0.1340    1.6780 C.3     0  LIG0        0.1813
     15  O30       -7.9100   -0.0670    1.2030 O.3     0  LIG0       -0.3112
     16  P46       -7.6140   -0.0410   -0.3880 P.3     0  LIG0        0.2189
     17  O28       -8.7190   -0.7000   -1.1310 O.2     0  LIG0       -0.5170
     18  O18       -6.2520   -0.6040   -0.5800 O.3     0  LIG0       -0.4371
     19  O32       -7.5240    1.5530   -0.7110 O.3     0  LIG0       -0.2700
     20  P47       -8.4980    2.5990   -1.4530 P.3     0  LIG0        0.2277
     21  O29       -9.8600    2.0180   -1.6770 O.2     0  LIG0       -0.5168
     22  O19       -8.4890    3.8410   -0.6300 O.3     0  LIG0       -0.4368
     23  O31       -7.7720    2.9460   -2.8550 O.3     0  LIG0       -0.2258
     24  P45       -7.4230    1.9980   -4.1370 P.3     0  LIG0        0.5373
     25  O26       -8.5200    0.9740   -4.2850 O.3     0  LIG0       -0.1143
     26  O27       -7.3810    2.9360   -5.3260 O.2     0  LIG0       -0.2221
     27  O17       -6.0960    1.4010   -3.8660 O.3     0  LIG0       -0.1143
     28  C41       -8.5560    2.2980    2.8300 C.3     0  LIG0        0.2161
     29  O23       -9.4820    3.2560    2.3550 O.3     0  LIG0       -0.2175
     30  C42       -8.1460    2.5680    4.2570 C.3     0  LIG0        0.2337
     31  O24       -9.2800    2.9700    5.0270 O.3     0  LIG0       -0.2155
@<TRIPOS>BOND
     1    26    24    2
     2    25    24    1
     3    24    27    1
     4    24    23    1
     5    23    20    1
     6    21    20    2
     7    20    19    1
     8    20    22    1
     9    17    16    2
    10    19    16    1
    11    18    16    1
    12    16    15    1
    13    15    14    1
    14    14    13    1
    15    29    28    1
    16    28    13    1
    17    28    30    1
    18    13    12    1
    19     8     9   ar
    20     8     7   ar
    21    12    11    1
    22     9    10   ar
    23    30    11    1
    24    30    31    1
    25     7    11    1
    26     7     6   ar
    27    10     6   ar
    28    10     2   ar
    29     6     5   ar
    30     1     2    1
    31     2     3   ar
    32     5     4   ar
    33     3     4   ar
