@<TRIPOS>MOLECULE
/Users/xuhangdai/Desktop/Projects/OptimalTransport/extra_bio_ligands_boltz_af3/boltz_results_6ln3_ATP/6ln3_ATP_model_33_chainB.pdb
 31 33 0 0 0
SMALL
GASTEIGER

@<TRIPOS>ATOM
      1  N38        5.9250   -1.2500   -0.9960 N.pl3   0  LIG0       -0.1054
      2  C34        6.6770   -1.5880    0.0870 C.ar    0  LIG0        0.1919
      3  N20        8.0200   -1.4420    0.0370 N.ar    0  LIG0       -0.2040
      4  C33        8.7700   -1.7790    1.1130 C.ar    0  LIG0        0.2016
      5  N22        8.2700   -2.2620    2.2560 N.ar    0  LIG0       -0.2048
      6  C37        6.9320   -2.4160    2.3310 C.ar    0  LIG0        0.1692
      7  N39        6.1540   -2.8680    3.3260 N.ar    0  LIG0       -0.2693
      8  C35        4.8590   -2.8200    2.9110 C.ar    0  LIG0        0.1816
      9  N21        4.8040   -2.3490    1.6640 N.ar    0  LIG0       -0.2193
     10  C36        6.0690   -2.0910    1.2760 C.ar    0  LIG0        0.1518
     11  C43        6.6740   -3.3250    4.6130 C.3     0  LIG0        0.2409
     12  O25        5.7610   -4.2220    5.2230 O.3     0  LIG0       -0.3306
     13  C44        5.4140   -3.7120    6.4900 C.3     0  LIG0        0.1801
     14  C40        4.0080   -4.1270    6.8330 C.3     0  LIG0        0.1813
     15  O30        3.1610   -3.7290    5.8100 O.3     0  LIG0       -0.3112
     16  P46        1.6300   -3.3290    6.1210 P.3     0  LIG0        0.2189
     17  O28        1.0900   -4.1880    7.2130 O.3     0  LIG0       -0.4371
     18  O18        0.9150   -3.3550    4.8200 O.2     0  LIG0       -0.5170
     19  O32        1.7290   -1.7630    6.5760 O.3     0  LIG0       -0.2700
     20  P47        1.9050   -1.0340    7.9970 P.3     0  LIG0        0.2277
     21  O29        1.9730   -2.0400    9.1120 O.3     0  LIG0       -0.4368
     22  O19        3.0890   -0.1260    7.8980 O.2     0  LIG0       -0.5168
     23  O31        0.6020   -0.1040    8.1410 O.3     0  LIG0       -0.2258
     24  P45       -0.9760   -0.4800    8.0660 P.3     0  LIG0        0.5373
     25  O26       -1.1430   -1.8850    8.5880 O.3     0  LIG0       -0.1143
     26  O27       -1.6710    0.5370    8.9530 O.3     0  LIG0       -0.1143
     27  O17       -1.3600   -0.3240    6.6420 O.2     0  LIG0       -0.2221
     28  C41        5.5970   -2.2070    6.3840 C.3     0  LIG0        0.2161
     29  O23        5.7460   -1.5560    7.6300 O.3     0  LIG0       -0.2175
     30  C42        6.8620   -2.1600    5.5640 C.3     0  LIG0        0.2337
     31  O24        7.9970   -2.4010    6.3990 O.3     0  LIG0       -0.2155
@<TRIPOS>BOND
     1     1     2    1
     2     3     2   ar
     3     3     4   ar
     4     2    10   ar
     5     4     5   ar
     6    10     9   ar
     7    10     6   ar
     8     9     8   ar
     9     5     6   ar
    10     6     7   ar
    11     8     7   ar
    12     7    11    1
    13    11    12    1
    14    11    30    1
    15    18    16    2
    16    12    13    1
    17    30    28    1
    18    30    31    1
    19    15    16    1
    20    15    14    1
    21    16    19    1
    22    16    17    1
    23    28    13    1
    24    28    29    1
    25    13    14    1
    26    19    20    1
    27    27    24    2
    28    22    20    2
    29    20    23    1
    30    20    21    1
    31    24    23    1
    32    24    25    1
    33    24    26    1
