@<TRIPOS>MOLECULE
/Users/xuhangdai/Desktop/Projects/OptimalTransport/extra_bio_ligands_boltz_af3/boltz_results_6ln3_ATP/6ln3_ATP_model_29_chainB.pdb
 31 33 0 0 0
SMALL
GASTEIGER

@<TRIPOS>ATOM
      1  N38       -2.8590   -3.4270   -1.7530 N.pl3   0  LIG0       -0.1054
      2  C34       -3.9920   -3.2750   -1.0130 C.ar    0  LIG0        0.1919
      3  N20       -4.8560   -4.3100   -0.9000 N.ar    0  LIG0       -0.2040
      4  C33       -5.9860   -4.1610   -0.1660 C.ar    0  LIG0        0.2016
      5  N22       -6.3250   -3.0390    0.4720 N.ar    0  LIG0       -0.2048
      6  C37       -5.4790   -1.9940    0.3750 C.ar    0  LIG0        0.1692
      7  N39       -5.5480   -0.7630    0.8970 N.ar    0  LIG0       -0.2693
      8  C35       -4.4360   -0.0740    0.5140 C.ar    0  LIG0        0.1816
      9  N21       -3.6640   -0.8530   -0.2480 N.ar    0  LIG0       -0.2193
     10  C36       -4.2830   -2.0470   -0.3530 C.ar    0  LIG0        0.1518
     11  C43       -6.6570   -0.2940    1.7250 C.3     0  LIG0        0.2409
     12  O25       -6.7480    1.1190    1.6650 O.3     0  LIG0       -0.3306
     13  C44       -6.6560    1.6280    2.9750 C.3     0  LIG0        0.1801
     14  C40       -5.9990    2.9830    2.9370 C.3     0  LIG0        0.1813
     15  O30       -4.7640    2.8670    2.3170 O.3     0  LIG0       -0.3112
     16  P46       -3.5630    3.8820    2.6660 P.3     0  LIG0        0.2189
     17  O28       -4.1000    5.2250    3.0170 O.3     0  LIG0       -0.4371
     18  O18       -2.6180    3.8240    1.5270 O.2     0  LIG0       -0.5170
     19  O32       -2.7970    3.2000    3.9280 O.3     0  LIG0       -0.2700
     20  P47       -3.1070    3.1320    5.5010 P.3     0  LIG0        0.2277
     21  O29       -4.3070    3.9700    5.8390 O.2     0  LIG0       -0.5168
     22  O19       -3.2140    1.6870    5.8680 O.3     0  LIG0       -0.4368
     23  O31       -1.7970    3.7190    6.2290 O.3     0  LIG0       -0.2258
     24  P45       -0.6720    4.7870    5.7460 P.3     0  LIG0        0.5373
     25  O26       -1.3970    5.9570    5.1410 O.3     0  LIG0       -0.1143
     26  O27        0.0770    5.1890    6.9970 O.3     0  LIG0       -0.1143
     27  O17        0.2020    4.0660    4.7920 O.2     0  LIG0       -0.2221
     28  C41       -5.8690    0.5910    3.7570 C.3     0  LIG0        0.2161
     29  O23       -6.0550    0.6690    5.1530 O.3     0  LIG0       -0.2175
     30  C42       -6.4550   -0.6710    3.1760 C.3     0  LIG0        0.2337
     31  O24       -7.7210   -0.9450    3.7810 O.3     0  LIG0       -0.2155
@<TRIPOS>BOND
     1     1     2    1
     2     2     3   ar
     3     2    10   ar
     4     3     4   ar
     5    10     9   ar
     6    10     6   ar
     7     9     8   ar
     8     4     5   ar
     9     6     5   ar
    10     6     7   ar
    11     8     7   ar
    12     7    11    1
    13    18    16    2
    14    12    11    1
    15    12    13    1
    16    11    30    1
    17    15    16    1
    18    15    14    1
    19    16    17    1
    20    16    19    1
    21    14    13    1
    22    13    28    1
    23    30    28    1
    24    30    31    1
    25    28    29    1
    26    19    20    1
    27    27    24    2
    28    25    24    1
    29    20    21    2
    30    20    22    1
    31    20    23    1
    32    24    23    1
    33    24    26    1
