@<TRIPOS>MOLECULE
/Users/xuhangdai/Desktop/Projects/OptimalTransport/extra_bio_ligands_boltz_af3/boltz_results_6ln3_ATP/6ln3_ATP_model_38_chainB.pdb
 31 33 0 0 0
SMALL
GASTEIGER

@<TRIPOS>ATOM
      1  N38        3.1820   -3.0200    5.6330 N.pl3   0  LIG0       -0.1054
      2  C34        2.7010   -4.2670    5.8790 C.ar    0  LIG0        0.1919
      3  N20        2.7860   -4.7820    7.1270 N.ar    0  LIG0       -0.2040
      4  C33        2.3080   -6.0250    7.3750 C.ar    0  LIG0        0.2016
      5  N22        1.7420   -6.8110    6.4530 N.ar    0  LIG0       -0.2048
      6  C37        1.6430   -6.3220    5.2000 C.ar    0  LIG0        0.1692
      7  N39        1.1310   -6.8640    4.0830 N.ar    0  LIG0       -0.2693
      8  C35        1.2630   -5.9590    3.0720 C.ar    0  LIG0        0.1816
      9  N21        1.8520   -4.8510    3.5310 N.ar    0  LIG0       -0.2193
     10  C36        2.1020   -5.0440    4.8420 C.ar    0  LIG0        0.1518
     11  C43        0.5540   -8.2070    4.0230 C.3     0  LIG0        0.2409
     12  O25        0.6300   -8.7120    2.7010 O.3     0  LIG0       -0.3306
     13  C44       -0.6730   -9.0410    2.2710 C.3     0  LIG0        0.1801
     14  C40       -0.7740   -8.8480    0.7790 C.3     0  LIG0        0.1813
     15  O30       -0.4430   -7.5340    0.4690 O.3     0  LIG0       -0.3112
     16  P46       -1.1130   -6.7940   -0.8010 P.3     0  LIG0        0.2189
     17  O28       -1.3580   -7.7630   -1.8980 O.2     0  LIG0       -0.5170
     18  O18       -0.2460   -5.6410   -1.1250 O.3     0  LIG0       -0.4371
     19  O32       -2.5080   -6.1850   -0.2130 O.3     0  LIG0       -0.2700
     20  P47       -4.0050   -6.7680   -0.1070 P.3     0  LIG0        0.2277
     21  O29       -4.0790   -8.1550   -0.6670 O.2     0  LIG0       -0.5168
     22  O19       -4.4380   -6.6500    1.3190 O.3     0  LIG0       -0.4368
     23  O31       -4.9100   -5.7420   -0.9680 O.3     0  LIG0       -0.2258
     24  P45       -4.7600   -5.2260   -2.5050 P.3     0  LIG0        0.5373
     25  O26       -4.3210   -6.3970   -3.3510 O.2     0  LIG0       -0.2221
     26  O27       -6.1430   -4.7410   -2.8980 O.3     0  LIG0       -0.1143
     27  O17       -3.7770   -4.1170   -2.4830 O.3     0  LIG0       -0.1143
     28  C41       -1.5970   -8.1400    3.0690 C.3     0  LIG0        0.2161
     29  O23       -2.9350   -8.6020    3.1360 O.3     0  LIG0       -0.2175
     30  C42       -0.9120   -8.1900    4.4090 C.3     0  LIG0        0.2337
     31  O24       -1.2460   -9.4040    5.0890 O.3     0  LIG0       -0.2155
@<TRIPOS>BOND
     1    25    24    2
     2    26    24    1
     3    24    27    1
     4    24    23    1
     5    17    16    2
     6    18    16    1
     7    23    20    1
     8    16    19    1
     9    16    15    1
    10    21    20    2
    11    19    20    1
    12    20    22    1
    13    15    14    1
    14    14    13    1
    15    13    12    1
    16    13    28    1
    17    12    11    1
    18    28    29    1
    19    28    30    1
    20     8     9   ar
    21     8     7   ar
    22     9    10   ar
    23    11     7    1
    24    11    30    1
    25     7     6   ar
    26    30    31    1
    27    10     6   ar
    28    10     2   ar
    29     6     5   ar
    30     1     2    1
    31     2     3   ar
    32     5     4   ar
    33     3     4   ar
