@<TRIPOS>MOLECULE
/Users/xuhangdai/Desktop/Projects/OptimalTransport/extra_bio_ligands_boltz_af3/boltz_results_6ln3_ATP/6ln3_ATP_model_4_chainB.pdb
 31 33 0 0 0
SMALL
GASTEIGER

@<TRIPOS>ATOM
      1  N38        1.9630    4.1570   -3.6770 N.pl3   0  LIG0       -0.1054
      2  C34        3.3090    4.1650   -3.4680 C.ar    0  LIG0        0.1919
      3  N20        4.0280    5.2600   -3.8000 N.ar    0  LIG0       -0.2040
      4  C33        5.3700    5.2680   -3.5950 C.ar    0  LIG0        0.2016
      5  N22        6.0600    4.2440   -3.0730 N.ar    0  LIG0       -0.2048
      6  C37        5.3640    3.1410   -2.7320 C.ar    0  LIG0        0.1692
      7  N39        5.7700    1.9790   -2.1960 N.ar    0  LIG0       -0.2693
      8  C35        4.6790    1.1800   -2.0310 C.ar    0  LIG0        0.1816
      9  N21        3.5820    1.8200   -2.4600 N.ar    0  LIG0       -0.2193
     10  C36        3.9750    3.0330   -2.9000 C.ar    0  LIG0        0.1518
     11  C43        7.1650    1.6750   -1.8750 C.3     0  LIG0        0.2409
     12  O25        7.3810    0.2720   -1.8930 O.3     0  LIG0       -0.3306
     13  C44        7.8840   -0.1190   -0.6350 C.3     0  LIG0        0.1801
     14  C40        7.4370   -1.5270   -0.3270 C.3     0  LIG0        0.1813
     15  O30        6.0490   -1.6020   -0.4590 O.3     0  LIG0       -0.3112
     16  P46        5.1960   -2.5230    0.5580 P.3     0  LIG0        0.2189
     17  O28        5.9170   -3.8010    0.8040 O.3     0  LIG0       -0.4371
     18  O18        3.8160   -2.6150    0.0120 O.2     0  LIG0       -0.5170
     19  O32        5.1510   -1.5760    1.8830 O.3     0  LIG0       -0.2700
     20  P47        5.6990   -1.7760    3.3800 P.3     0  LIG0        0.2277
     21  O29        6.6450   -2.9270    3.4650 O.2     0  LIG0       -0.5168
     22  O19        6.2730   -0.4590    3.7860 O.3     0  LIG0       -0.4368
     23  O31        4.3650   -2.0440    4.2460 O.3     0  LIG0       -0.2258
     24  P45        3.5250   -3.4380    4.4420 P.3     0  LIG0        0.5373
     25  O26        4.4410   -4.4150    5.1540 O.3     0  LIG0       -0.1143
     26  O27        3.1220   -3.9170    3.0750 O.2     0  LIG0       -0.2221
     27  O17        2.3430   -3.0640    5.2660 O.3     0  LIG0       -0.1143
     28  C41        7.3600    0.9120    0.3460 C.3     0  LIG0        0.2161
     29  O23        8.0850    0.9750    1.5560 O.3     0  LIG0       -0.2175
     30  C42        7.5300    2.1600   -0.4870 C.3     0  LIG0        0.2337
     31  O24        8.8960    2.5810   -0.4710 O.3     0  LIG0       -0.2155
@<TRIPOS>BOND
     1     3     4   ar
     2     3     2   ar
     3     1     2    1
     4     4     5   ar
     5     2    10   ar
     6     5     6   ar
     7    10     6   ar
     8    10     9   ar
     9     6     7   ar
    10     9     8   ar
    11     7     8   ar
    12     7    11    1
    13    12    11    1
    14    12    13    1
    15    11    30    1
    16    13    14    1
    17    13    28    1
    18    30    31    1
    19    30    28    1
    20    15    14    1
    21    15    16    1
    22    18    16    2
    23    28    29    1
    24    16    17    1
    25    16    19    1
    26    19    20    1
    27    26    24    2
    28    20    21    2
    29    20    22    1
    30    20    23    1
    31    23    24    1
    32    24    25    1
    33    24    27    1
