@<TRIPOS>MOLECULE
/Users/xuhangdai/Desktop/Projects/OptimalTransport/extra_bio_ligands_boltz_af3/boltz_results_6ln3_ATP/6ln3_ATP_model_19_chainB.pdb
 31 33 0 0 0
SMALL
GASTEIGER

@<TRIPOS>ATOM
      1  N38       -1.6950   -0.5740   -7.2700 N.pl3   0  LIG0       -0.1054
      2  C34       -3.0280   -0.3180   -7.3910 C.ar    0  LIG0        0.1919
      3  N20       -3.7120   -0.8060   -8.4530 N.ar    0  LIG0       -0.2040
      4  C33       -5.0380   -0.5490   -8.5740 C.ar    0  LIG0        0.2016
      5  N22       -5.7450    0.1750   -7.6980 N.ar    0  LIG0       -0.2048
      6  C37       -5.0890    0.6700   -6.6300 C.ar    0  LIG0        0.1692
      7  N39       -5.5230    1.4170   -5.5990 N.ar    0  LIG0       -0.2693
      8  C35       -4.4690    1.6550   -4.7690 C.ar    0  LIG0        0.1816
      9  N21       -3.3690    1.0730   -5.2580 N.ar    0  LIG0       -0.2193
     10  C36       -3.7190    0.4580   -6.4080 C.ar    0  LIG0        0.1518
     11  C43       -6.9040    1.8710   -5.4590 C.3     0  LIG0        0.2409
     12  O25       -6.9570    3.0440   -4.6550 O.3     0  LIG0       -0.3306
     13  C44       -7.8150    2.7960   -3.5630 C.3     0  LIG0        0.1801
     14  C40       -7.3600    3.6000   -2.3730 C.3     0  LIG0        0.1813
     15  O30       -5.9950    3.3680   -2.1640 O.3     0  LIG0       -0.3112
     16  P46       -5.4240    3.2200   -0.6600 P.3     0  LIG0        0.2189
     17  O28       -5.9940    4.2930    0.2050 O.3     0  LIG0       -0.4371
     18  O18       -3.9370    3.1610   -0.7610 O.2     0  LIG0       -0.5170
     19  O32       -5.9710    1.7410   -0.2590 O.3     0  LIG0       -0.2700
     20  P47       -6.8850    1.1750    0.9420 P.3     0  LIG0        0.2277
     21  O29       -7.8380    2.2190    1.4380 O.3     0  LIG0       -0.4368
     22  O19       -7.5390   -0.0540    0.4020 O.2     0  LIG0       -0.5168
     23  O31       -5.8570    0.7110    2.0900 O.3     0  LIG0       -0.2258
     24  P45       -5.0310    1.5450    3.2320 P.3     0  LIG0        0.5373
     25  O26       -5.8810    2.7110    3.6870 O.3     0  LIG0       -0.1143
     26  O27       -4.8050    0.5470    4.3570 O.3     0  LIG0       -0.1143
     27  O17       -3.7450    1.9710    2.6180 O.2     0  LIG0       -0.2221
     28  C41       -7.7610    1.2900   -3.3470 C.3     0  LIG0        0.2161
     29  O23       -8.8640    0.7780   -2.6250 O.3     0  LIG0       -0.2175
     30  C42       -7.7560    0.8220   -4.7810 C.3     0  LIG0        0.2337
     31  O24       -9.0800    0.8620   -5.3180 O.3     0  LIG0       -0.2155
@<TRIPOS>BOND
     1     4     3   ar
     2     4     5   ar
     3     3     2   ar
     4     5     6   ar
     5     2     1    1
     6     2    10   ar
     7     6    10   ar
     8     6     7   ar
     9    10     9   ar
    10     7    11    1
    11     7     8   ar
    12    11    30    1
    13    11    12    1
    14    31    30    1
    15     9     8   ar
    16    30    28    1
    17    12    13    1
    18    13    28    1
    19    13    14    1
    20    28    29    1
    21    14    15    1
    22    15    16    1
    23    18    16    2
    24    16    19    1
    25    16    17    1
    26    19    20    1
    27    22    20    2
    28    20    21    1
    29    20    23    1
    30    23    24    1
    31    27    24    2
    32    24    25    1
    33    24    26    1
