@<TRIPOS>MOLECULE
/Users/xuhangdai/Desktop/Projects/OptimalTransport/extra_bio_ligands_boltz_af3/boltz_results_6ln3_ATP/6ln3_ATP_model_27_chainB.pdb
 31 33 0 0 0
SMALL
GASTEIGER

@<TRIPOS>ATOM
      1  N38        4.8030   -1.7530    2.8310 N.pl3   0  LIG0       -0.1054
      2  C34        5.8960   -1.5240    2.0510 C.ar    0  LIG0        0.1919
      3  N20        7.0520   -2.1770    2.3170 N.ar    0  LIG0       -0.2040
      4  C33        8.1430   -1.9500    1.5410 C.ar    0  LIG0        0.2016
      5  N22        8.1660   -1.1040    0.5020 N.ar    0  LIG0       -0.2048
      6  C37        7.0230   -0.4440    0.2150 C.ar    0  LIG0        0.1692
      7  N39        6.7440    0.4460   -0.7500 N.ar    0  LIG0       -0.2693
      8  C35        5.4370    0.8170   -0.6240 C.ar    0  LIG0        0.1816
      9  N21        4.8840    0.1750    0.4120 N.ar    0  LIG0       -0.2193
     10  C36        5.8400   -0.6110    0.9530 C.ar    0  LIG0        0.1518
     11  C43        7.7260    0.9010   -1.7320 C.3     0  LIG0        0.2409
     12  O25        7.3690    2.1880   -2.2180 O.3     0  LIG0       -0.3306
     13  C44        7.2370    2.1090   -3.6170 C.3     0  LIG0        0.1801
     14  C40        6.2010    3.1010   -4.0820 C.3     0  LIG0        0.1813
     15  O30        5.0130    2.8930   -3.3780 O.3     0  LIG0       -0.3112
     16  P46        3.5900    3.0090   -4.1380 P.3     0  LIG0        0.2189
     17  O28        3.5930    4.1860   -5.0600 O.2     0  LIG0       -0.5170
     18  O18        2.5340    2.9800   -3.0900 O.3     0  LIG0       -0.4371
     19  O32        3.5300    1.6030   -4.9470 O.3     0  LIG0       -0.2700
     20  P47        3.5930    1.2000   -6.5060 P.3     0  LIG0        0.2277
     21  O29        4.2810    2.2740   -7.3050 O.2     0  LIG0       -0.5168
     22  O19        4.2500   -0.1400   -6.5640 O.3     0  LIG0       -0.4368
     23  O31        2.0680    0.9990   -6.9600 O.3     0  LIG0       -0.2258
     24  P45        0.8070    2.0200   -7.1270 P.3     0  LIG0        0.5373
     25  O26        1.3380    3.4040   -7.4130 O.3     0  LIG0       -0.1143
     26  O27        0.0250    1.4640   -8.3080 O.2     0  LIG0       -0.2221
     27  O17        0.0350    1.9310   -5.8590 O.3     0  LIG0       -0.1143
     28  C41        6.8740    0.6620   -3.9110 C.3     0  LIG0        0.2161
     29  O23        7.1320    0.2620   -5.2440 O.3     0  LIG0       -0.2175
     30  C42        7.7780   -0.0310   -2.9250 C.3     0  LIG0        0.2337
     31  O24        9.1130   -0.0900   -3.4330 O.3     0  LIG0       -0.2155
@<TRIPOS>BOND
     1    26    24    2
     2    25    24    1
     3    21    20    2
     4    24    23    1
     5    24    27    1
     6    23    20    1
     7    22    20    1
     8    20    19    1
     9    29    28    1
    10    17    16    2
    11    19    16    1
    12    16    15    1
    13    16    18    1
    14    14    13    1
    15    14    15    1
    16    28    13    1
    17    28    30    1
    18    13    12    1
    19    31    30    1
    20    30    11    1
    21    12    11    1
    22    11     7    1
    23     7     8   ar
    24     7     6   ar
    25     8     9   ar
    26     6     5   ar
    27     6    10   ar
    28     9    10   ar
    29     5     4   ar
    30    10     2   ar
    31     4     3   ar
    32     2     3   ar
    33     2     1    1
