@<TRIPOS>MOLECULE
/Users/xuhangdai/Desktop/Projects/OptimalTransport/extra_bio_ligands_boltz_af3/boltz_results_6ln3_ATP/6ln3_ATP_model_17_chainB.pdb
 31 33 0 0 0
SMALL
GASTEIGER

@<TRIPOS>ATOM
      1  N38       -3.5050    2.5810    2.4880 N.pl3   0  LIG0       -0.1054
      2  C34       -3.0950    2.9040    3.7440 C.ar    0  LIG0        0.1919
      3  N20       -3.9680    3.4810    4.6050 N.ar    0  LIG0       -0.2040
      4  C33       -3.5580    3.8030    5.8580 C.ar    0  LIG0        0.2016
      5  N22       -2.3170    3.5880    6.3270 N.ar    0  LIG0       -0.2048
      6  C37       -1.4260    3.0110    5.4880 C.ar    0  LIG0        0.1692
      7  N39       -0.1300    2.6740    5.6700 N.ar    0  LIG0       -0.2693
      8  C35        0.3270    2.1100    4.5180 C.ar    0  LIG0        0.1816
      9  N21       -0.6560    2.0860    3.6050 N.ar    0  LIG0       -0.2193
     10  C36       -1.7530    2.6360    4.1730 C.ar    0  LIG0        0.1518
     11  C43        0.6080    2.9010    6.9140 C.3     0  LIG0        0.2409
     12  O25        2.0050    2.9850    6.6540 O.3     0  LIG0       -0.3306
     13  C44        2.6670    2.0160    7.4350 C.3     0  LIG0        0.1801
     14  C40        3.9070    1.5370    6.7150 C.3     0  LIG0        0.1813
     15  O30        3.5570    1.1030    5.4330 O.3     0  LIG0       -0.3112
     16  P46        4.3430   -0.1240    4.7320 P.3     0  LIG0        0.2189
     17  O28        5.8020   -0.0460    5.0400 O.3     0  LIG0       -0.4371
     18  O18        3.9550   -0.1200    3.2940 O.2     0  LIG0       -0.5170
     19  O32        3.6370   -1.4260    5.4150 O.3     0  LIG0       -0.2700
     20  P47        4.1140   -2.5510    6.4640 P.3     0  LIG0        0.2277
     21  O29        5.4370   -2.2070    7.0830 O.2     0  LIG0       -0.5168
     22  O19        2.9920   -2.7210    7.4320 O.3     0  LIG0       -0.4368
     23  O31        4.2180   -3.9040    5.5840 O.3     0  LIG0       -0.2258
     24  P45        5.3500   -4.4440    4.5340 P.3     0  LIG0        0.5373
     25  O26        6.6740   -3.7870    4.8740 O.3     0  LIG0       -0.1143
     26  O27        5.3980   -5.9470    4.7570 O.3     0  LIG0       -0.1143
     27  O17        4.8620   -4.1060    3.1740 O.2     0  LIG0       -0.2221
     28  C41        1.6430    0.9180    7.6700 C.3     0  LIG0        0.2161
     29  O23        1.9290    0.0970    8.7880 O.3     0  LIG0       -0.2175
     30  C42        0.4050    1.7560    7.8880 C.3     0  LIG0        0.2337
     31  O24        0.3830    2.2640    9.2260 O.3     0  LIG0       -0.2155
@<TRIPOS>BOND
     1     1     2    1
     2    27    24    2
     3    18    16    2
     4     9    10   ar
     5     9     8   ar
     6     2    10   ar
     7     2     3   ar
     8    10     6   ar
     9     8     7   ar
    10    24    26    1
    11    24    25    1
    12    24    23    1
    13     3     4   ar
    14    16    17    1
    15    16    19    1
    16    16    15    1
    17    19    20    1
    18    15    14    1
    19     6     7   ar
    20     6     5   ar
    21    23    20    1
    22     7    11    1
    23     4     5   ar
    24    20    21    2
    25    20    22    1
    26    12    11    1
    27    12    13    1
    28    14    13    1
    29    11    30    1
    30    13    28    1
    31    28    30    1
    32    28    29    1
    33    30    31    1
