@<TRIPOS>MOLECULE
/Users/xuhangdai/Desktop/Projects/OptimalTransport/extra_bio_ligands_boltz_af3/boltz_results_6ln3_ATP/6ln3_ATP_model_18_chainB.pdb
 31 33 0 0 0
SMALL
GASTEIGER

@<TRIPOS>ATOM
      1  N38       -2.4110    5.6980    1.8080 N.pl3   0  LIG0       -0.1054
      2  C34       -1.9130    6.3060    2.9210 C.ar    0  LIG0        0.1919
      3  N20       -2.6040    7.3170    3.4930 N.ar    0  LIG0       -0.2040
      4  C33       -2.1110    7.9230    4.6000 C.ar    0  LIG0        0.2016
      5  N22       -0.9560    7.5910    5.1890 N.ar    0  LIG0       -0.2048
      6  C37       -0.2490    6.5840    4.6390 C.ar    0  LIG0        0.1692
      7  N39        0.9200    6.0330    5.0020 N.ar    0  LIG0       -0.2693
      8  C35        1.2100    5.0330    4.1250 C.ar    0  LIG0        0.1816
      9  N21        0.2410    4.9410    3.2060 N.ar    0  LIG0       -0.2193
     10  C36       -0.6740    5.8880    3.4970 C.ar    0  LIG0        0.1518
     11  C43        1.7020    6.4850    6.1520 C.3     0  LIG0        0.2409
     12  O25        3.0730    6.1820    5.9570 O.3     0  LIG0       -0.3306
     13  C44        3.5100    5.3950    7.0430 C.3     0  LIG0        0.1801
     14  C40        4.6010    4.4620    6.5820 C.3     0  LIG0        0.1813
     15  O30        4.1360    3.7110    5.5080 O.3     0  LIG0       -0.3112
     16  P46        4.5690    2.1620    5.3500 P.3     0  LIG0        0.2189
     17  O28        5.9840    1.9800    5.7820 O.3     0  LIG0       -0.4371
     18  O18        4.2330    1.7730    3.9580 O.2     0  LIG0       -0.5170
     19  O32        3.5170    1.4050    6.3390 O.3     0  LIG0       -0.2700
     20  P47        3.6400    0.7370    7.8030 P.3     0  LIG0        0.2277
     21  O29        4.9460    1.0940    8.4490 O.2     0  LIG0       -0.5168
     22  O19        2.4230    1.1550    8.5710 O.3     0  LIG0       -0.4368
     23  O31        3.5230   -0.8500    7.5370 O.3     0  LIG0       -0.2258
     24  P45        4.4760   -1.8700    6.6920 P.3     0  LIG0        0.5373
     25  O26        5.8860   -1.3340    6.7340 O.3     0  LIG0       -0.1143
     26  O27        4.3600   -3.2010    7.4080 O.3     0  LIG0       -0.1143
     27  O17        3.9050   -1.9240    5.3230 O.2     0  LIG0       -0.2221
     28  C41        2.2680    4.6800    7.5530 C.3     0  LIG0        0.2161
     29  O23        2.3760    4.2130    8.8840 O.3     0  LIG0       -0.2175
     30  C42        1.2600    5.7920    7.4270 C.3     0  LIG0        0.2337
     31  O24        1.3820    6.6930    8.5300 O.3     0  LIG0       -0.2155
@<TRIPOS>BOND
     1     1     2    1
     2     2     3   ar
     3     2    10   ar
     4     9    10   ar
     5     9     8   ar
     6     3     4   ar
     7    10     6   ar
     8    18    16    2
     9     8     7   ar
    10     4     5   ar
    11     6     7   ar
    12     6     5   ar
    13     7    11    1
    14    27    24    2
    15    16    15    1
    16    16    17    1
    17    16    19    1
    18    15    14    1
    19    12    11    1
    20    12    13    1
    21    11    30    1
    22    19    20    1
    23    14    13    1
    24    24    25    1
    25    24    26    1
    26    24    23    1
    27    13    28    1
    28    30    28    1
    29    30    31    1
    30    23    20    1
    31    28    29    1
    32    20    21    2
    33    20    22    1
