@<TRIPOS>MOLECULE
/Users/xuhangdai/Desktop/Projects/OptimalTransport/extra_bio_ligands_boltz_af3/boltz_results_6ln3_ATP/6ln3_ATP_model_5_chainB.pdb
 31 33 0 0 0
SMALL
GASTEIGER

@<TRIPOS>ATOM
      1  N38       -1.5270   -2.3400   -5.0760 N.pl3   0  LIG0       -0.1054
      2  C34       -1.7710   -1.6950   -6.2500 C.ar    0  LIG0        0.1919
      3  N20       -2.5540   -2.2810   -7.1850 N.ar    0  LIG0       -0.2040
      4  C33       -2.8000   -1.6360   -8.3540 C.ar    0  LIG0        0.2016
      5  N22       -2.3110   -0.4300   -8.6650 N.ar    0  LIG0       -0.2048
      6  C37       -1.5250    0.1760   -7.7510 C.ar    0  LIG0        0.1692
      7  N39       -0.9050    1.3670   -7.7760 N.ar    0  LIG0       -0.2693
      8  C35       -0.2390    1.5250   -6.5980 C.ar    0  LIG0        0.1816
      9  N21       -0.4270    0.4510   -5.8240 N.ar    0  LIG0       -0.2193
     10  C36       -1.2170   -0.4020   -6.5090 C.ar    0  LIG0        0.1518
     11  C43       -0.9600    2.2940   -8.9070 C.3     0  LIG0        0.2409
     12  O25        0.1630    3.1630   -8.8820 O.3     0  LIG0       -0.3306
     13  C44       -0.3030    4.4960   -8.8290 C.3     0  LIG0        0.1801
     14  C40        0.6830    5.3510   -8.0660 C.3     0  LIG0        0.1813
     15  O30        0.9080    4.7790   -6.8170 O.3     0  LIG0       -0.3112
     16  P46        1.3180    5.6930   -5.5510 P.3     0  LIG0        0.2189
     17  O28        2.1700    6.8380   -5.9930 O.2     0  LIG0       -0.5170
     18  O18        1.8940    4.7740   -4.5340 O.3     0  LIG0       -0.4371
     19  O32       -0.1250    6.1900   -4.9830 O.3     0  LIG0       -0.2700
     20  P47       -1.0020    7.5290   -5.1290 P.3     0  LIG0        0.2277
     21  O29       -0.3310    8.5350   -6.0230 O.2     0  LIG0       -0.5168
     22  O19       -2.3670    7.1160   -5.5750 O.3     0  LIG0       -0.4368
     23  O31       -1.1150    8.0860   -3.6160 O.3     0  LIG0       -0.2258
     24  P45        0.0300    8.6770   -2.6020 P.3     0  LIG0        0.5373
     25  O26        0.9560    9.5690   -3.4090 O.2     0  LIG0       -0.2221
     26  O27       -0.7270    9.4740   -1.5540 O.3     0  LIG0       -0.1143
     27  O17        0.7240    7.5130   -2.0020 O.3     0  LIG0       -0.1143
     28  C41       -1.6700    4.4170   -8.1730 C.3     0  LIG0        0.2161
     29  O23       -2.4940    5.5400   -8.4260 O.3     0  LIG0       -0.2175
     30  C42       -2.1980    3.1670   -8.8360 C.3     0  LIG0        0.2337
     31  O24       -2.6510    3.4630  -10.1610 O.3     0  LIG0       -0.2155
@<TRIPOS>BOND
     1    31    30    1
     2    11    12    1
     3    11    30    1
     4    11     7    1
     5    12    13    1
     6    30    28    1
     7    13    28    1
     8    13    14    1
     9     5     4   ar
    10     5     6   ar
    11    29    28    1
    12     4     3   ar
    13    14    15    1
    14     7     6   ar
    15     7     8   ar
    16     6    10   ar
    17     3     2   ar
    18    15    16    1
    19     8     9   ar
    20    10     2   ar
    21    10     9   ar
    22     2     1    1
    23    21    20    2
    24    17    16    2
    25    22    20    1
    26    16    19    1
    27    16    18    1
    28    20    19    1
    29    20    23    1
    30    23    24    1
    31    25    24    2
    32    24    27    1
    33    24    26    1
