@<TRIPOS>MOLECULE
/Users/xuhangdai/Desktop/Projects/OptimalTransport/extra_bio_ligands_boltz_af3/boltz_results_6ln3_ATP/6ln3_ATP_model_43_chainB.pdb
 31 33 0 0 0
SMALL
GASTEIGER

@<TRIPOS>ATOM
      1  N38       -5.5070    0.9100   -4.7530 N.pl3   0  LIG0       -0.1054
      2  C34       -6.6620    0.2000   -4.8980 C.ar    0  LIG0        0.1919
      3  N20       -7.2100    0.0600   -6.1260 N.ar    0  LIG0       -0.2040
      4  C33       -8.3590   -0.6460   -6.2730 C.ar    0  LIG0        0.2016
      5  N22       -9.0160   -1.2250   -5.2630 N.ar    0  LIG0       -0.2048
      6  C37       -8.4900   -1.1020   -4.0280 C.ar    0  LIG0        0.1692
      7  N39       -8.9130   -1.5700   -2.8450 N.ar    0  LIG0       -0.2693
      8  C35       -8.0230   -1.1810   -1.8900 C.ar    0  LIG0        0.1816
      9  N21       -7.0410   -0.4660   -2.4520 N.ar    0  LIG0       -0.2193
     10  C36       -7.3030   -0.3990   -3.7720 C.ar    0  LIG0        0.1518
     11  C43      -10.1350   -2.3560   -2.6740 C.3     0  LIG0        0.2409
     12  O25      -10.6190   -2.2310   -1.3480 O.3     0  LIG0       -0.3306
     13  C44      -10.7230   -3.5190   -0.7890 C.3     0  LIG0        0.1801
     14  C40      -10.4820   -3.4430    0.6990 C.3     0  LIG0        0.1813
     15  O30       -9.2430   -2.8560    0.9240 O.3     0  LIG0       -0.3112
     16  P46       -8.2950   -3.3730    2.1260 P.3     0  LIG0        0.2189
     17  O28       -9.1160   -3.7340    3.3120 O.3     0  LIG0       -0.4371
     18  O18       -7.2620   -2.3240    2.3250 O.2     0  LIG0       -0.5170
     19  O32       -7.5430   -4.6680    1.4860 O.3     0  LIG0       -0.2700
     20  P47       -7.8490   -6.2500    1.4770 P.3     0  LIG0        0.2277
     21  O29       -9.2430   -6.5220    1.9650 O.3     0  LIG0       -0.4368
     22  O19       -7.5630   -6.7500    0.1000 O.2     0  LIG0       -0.5168
     23  O31       -6.7620   -6.9190    2.4490 O.3     0  LIG0       -0.2258
     24  P45       -6.0700   -6.4070    3.8220 P.3     0  LIG0        0.5373
     25  O26       -7.1460   -5.7840    4.6680 O.3     0  LIG0       -0.1143
     26  O27       -5.4980   -7.6500    4.4740 O.3     0  LIG0       -0.1143
     27  O17       -5.0050   -5.4590    3.4110 O.2     0  LIG0       -0.2221
     28  C41       -9.7020   -4.3670   -1.5280 C.3     0  LIG0        0.2161
     29  O23       -9.9540   -5.7570   -1.4620 O.3     0  LIG0       -0.2175
     30  C42       -9.8730   -3.8270   -2.9250 C.3     0  LIG0        0.2337
     31  O24      -11.0180   -4.4170   -3.5470 O.3     0  LIG0       -0.2155
@<TRIPOS>BOND
     1     4     3   ar
     2     4     5   ar
     3     3     2   ar
     4     5     6   ar
     5     2     1    1
     6     2    10   ar
     7     6    10   ar
     8     6     7   ar
     9    10     9   ar
    10    31    30    1
    11    30    11    1
    12    30    28    1
    13     7    11    1
    14     7     8   ar
    15    11    12    1
    16     9     8   ar
    17    28    29    1
    18    28    13    1
    19    12    13    1
    20    13    14    1
    21    22    20    2
    22    14    15    1
    23    15    16    1
    24    20    19    1
    25    20    21    1
    26    20    23    1
    27    19    16    1
    28    16    18    2
    29    16    17    1
    30    23    24    1
    31    27    24    2
    32    24    26    1
    33    24    25    1
