@<TRIPOS>MOLECULE
/Users/xuhangdai/Desktop/Projects/OptimalTransport/extra_bio_ligands_boltz_af3/boltz_results_6ln3_ATP/6ln3_ATP_model_11_chainB.pdb
 31 33 0 0 0
SMALL
GASTEIGER

@<TRIPOS>ATOM
      1  N38       -3.0260   -4.9090   -3.1410 N.pl3   0  LIG0       -0.1054
      2  C34       -4.3620   -5.0580   -2.9410 C.ar    0  LIG0        0.1919
      3  N20       -4.9090   -6.2920   -2.9920 N.ar    0  LIG0       -0.2040
      4  C33       -6.2380   -6.4460   -2.7920 C.ar    0  LIG0        0.2016
      5  N22       -7.0790   -5.4380   -2.5470 N.ar    0  LIG0       -0.2048
      6  C37       -6.5570   -4.1980   -2.4920 C.ar    0  LIG0        0.1692
      7  N39       -7.1400   -3.0160   -2.2640 N.ar    0  LIG0       -0.2693
      8  C35       -6.1830   -2.0540   -2.3030 C.ar    0  LIG0        0.1816
      9  N21       -4.9960   -2.6060   -2.5520 N.ar    0  LIG0       -0.2193
     10  C36       -5.1970   -3.9340   -2.6760 C.ar    0  LIG0        0.1518
     11  C43       -8.5710   -2.8540   -2.0280 C.3     0  LIG0        0.2409
     12  O25       -8.9860   -1.5490   -2.3830 O.3     0  LIG0       -0.3306
     13  C44       -9.5760   -0.9450   -1.2590 C.3     0  LIG0        0.1801
     14  C40       -9.3330    0.5370   -1.2990 C.3     0  LIG0        0.1813
     15  O30       -7.9760    0.7640   -1.4500 O.3     0  LIG0       -0.3112
     16  P46       -7.2860    2.0520   -0.7780 P.3     0  LIG0        0.2189
     17  O28       -8.2000    3.2270   -0.8740 O.3     0  LIG0       -0.4371
     18  O18       -5.9430    2.1860   -1.3850 O.2     0  LIG0       -0.5170
     19  O32       -7.0700    1.5790    0.7570 O.3     0  LIG0       -0.2700
     20  P47       -7.8880    1.8030    2.1150 P.3     0  LIG0        0.2277
     21  O29       -9.1680    2.5380    1.8520 O.2     0  LIG0       -0.5168
     22  O19       -8.0460    0.4710    2.7570 O.3     0  LIG0       -0.4368
     23  O31       -6.9020    2.6710    3.0330 O.3     0  LIG0       -0.2258
     24  P45       -6.2080    4.1160    2.8110 P.3     0  LIG0        0.5373
     25  O26       -7.0610    4.9020    1.8610 O.2     0  LIG0       -0.2221
     26  O27       -6.1670    4.7490    4.1870 O.3     0  LIG0       -0.1143
     27  O17       -4.8510    3.8340    2.2950 O.3     0  LIG0       -0.1143
     28  C41       -8.9520   -1.6310   -0.0580 C.3     0  LIG0        0.2161
     29  O23       -9.7080   -1.5170    1.1300 O.3     0  LIG0       -0.2175
     30  C42       -8.9130   -3.0490   -0.5670 C.3     0  LIG0        0.2337
     31  O24      -10.2000   -3.6530   -0.4490 O.3     0  LIG0       -0.2155
@<TRIPOS>BOND
     1     1     2    1
     2     3     2   ar
     3     3     4   ar
     4     2    10   ar
     5     4     5   ar
     6    10     9   ar
     7    10     6   ar
     8     9     8   ar
     9     5     6   ar
    10     6     7   ar
    11    12    11    1
    12    12    13    1
    13     8     7   ar
    14     7    11    1
    15    11    30    1
    16    15    14    1
    17    15    16    1
    18    18    16    2
    19    14    13    1
    20    13    28    1
    21    17    16    1
    22    16    19    1
    23    30    31    1
    24    30    28    1
    25    28    29    1
    26    19    20    1
    27    21    20    2
    28    25    24    2
    29    20    22    1
    30    20    23    1
    31    27    24    1
    32    24    23    1
    33    24    26    1
