@<TRIPOS>MOLECULE
/Users/xuhangdai/Desktop/Projects/OptimalTransport/extra_bio_ligands_boltz_af3/boltz_results_6ln3_ATP/6ln3_ATP_model_28_chainB.pdb
 31 33 0 0 0
SMALL
GASTEIGER

@<TRIPOS>ATOM
      1  N38       -4.3290    4.8200    3.0630 N.pl3   0  LIG0       -0.1054
      2  C34       -5.6370    4.9210    2.7050 C.ar    0  LIG0        0.1919
      3  N20       -6.2890    6.0950    2.8830 N.ar    0  LIG0       -0.2040
      4  C33       -7.5930    6.1990    2.5260 C.ar    0  LIG0        0.2016
      5  N22       -8.3100    5.1980    2.0010 N.ar    0  LIG0       -0.2048
      6  C37       -7.6830    4.0180    1.8170 C.ar    0  LIG0        0.1692
      7  N39       -8.1310    2.8570    1.3190 N.ar    0  LIG0       -0.2693
      8  C35       -7.1040    1.9570    1.3330 C.ar    0  LIG0        0.1816
      9  N21       -6.0110    2.5360    1.8340 N.ar    0  LIG0       -0.2193
     10  C36       -6.3370    3.8090    2.1440 C.ar    0  LIG0        0.1518
     11  C43       -9.5040    2.6510    0.8650 C.3     0  LIG0        0.2409
     12  O25       -9.8640    1.2850    0.9790 O.3     0  LIG0       -0.3306
     13  C44      -10.2730    0.8220   -0.2890 C.3     0  LIG0        0.1801
     14  C40       -9.9430   -0.6440   -0.4230 C.3     0  LIG0        0.1813
     15  O30       -8.5970   -0.8370   -0.1290 O.3     0  LIG0       -0.3112
     16  P46       -7.7110   -1.8770   -0.9890 P.3     0  LIG0        0.2189
     17  O28       -8.4870   -3.1230   -1.2490 O.2     0  LIG0       -0.5170
     18  O18       -6.4120   -2.0280   -0.2830 O.3     0  LIG0       -0.4371
     19  O32       -7.4360   -1.0360   -2.3570 O.3     0  LIG0       -0.2700
     20  P47       -7.9530   -1.1810   -3.8680 P.3     0  LIG0        0.2277
     21  O29       -9.2010   -2.0150   -3.9340 O.3     0  LIG0       -0.4368
     22  O19       -8.1020    0.2100   -4.4010 O.2     0  LIG0       -0.5168
     23  O31       -6.7350   -1.8710   -4.6680 O.3     0  LIG0       -0.2258
     24  P45       -6.1170   -3.3810   -4.5860 P.3     0  LIG0        0.5373
     25  O26       -7.2720   -4.3570   -4.5110 O.3     0  LIG0       -0.1143
     26  O27       -5.3310   -3.5420   -5.8780 O.2     0  LIG0       -0.2221
     27  O17       -5.2350   -3.4200   -3.3970 O.3     0  LIG0       -0.1143
     28  C41       -9.5530    1.7080   -1.2940 C.3     0  LIG0        0.2161
     29  O23      -10.1550    1.7350   -2.5710 O.3     0  LIG0       -0.2175
     30  C42       -9.6570    3.0390   -0.5910 C.3     0  LIG0        0.2337
     31  O24      -10.9500    3.6130   -0.8010 O.3     0  LIG0       -0.2155
@<TRIPOS>BOND
     1    26    24    2
     2    23    24    1
     3    23    20    1
     4    24    25    1
     5    24    27    1
     6    22    20    2
     7    21    20    1
     8    20    19    1
     9    29    28    1
    10    19    16    1
    11    28    30    1
    12    28    13    1
    13    17    16    2
    14    16    18    1
    15    16    15    1
    16    31    30    1
    17    30    11    1
    18    14    13    1
    19    14    15    1
    20    13    12    1
    21    11    12    1
    22    11     7    1
    23     7     8   ar
    24     7     6   ar
    25     8     9   ar
    26     6     5   ar
    27     6    10   ar
    28     9    10   ar
    29     5     4   ar
    30    10     2   ar
    31     4     3   ar
    32     2     3   ar
    33     2     1    1
