@<TRIPOS>MOLECULE
/Users/xuhangdai/Desktop/Projects/OptimalTransport/extra_bio_ligands_boltz_af3/boltz_results_6ln3_ATP/6ln3_ATP_model_44_chainB.pdb
 31 33 0 0 0
SMALL
GASTEIGER

@<TRIPOS>ATOM
      1  N38        1.6900    4.8470   -1.8000 N.pl3   0  LIG0       -0.1054
      2  C34        1.0030    5.9030   -1.2890 C.ar    0  LIG0        0.1919
      3  N20        1.2730    7.1500   -1.7320 N.ar    0  LIG0       -0.2040
      4  C33        0.5880    8.2010   -1.2250 C.ar    0  LIG0        0.2016
      5  N22       -0.3630    8.0990   -0.2890 N.ar    0  LIG0       -0.2048
      6  C37       -0.6510    6.8660    0.1690 C.ar    0  LIG0        0.1692
      7  N39       -1.5400    6.4590    1.0850 N.ar    0  LIG0       -0.2693
      8  C35       -1.4550    5.1030    1.1870 C.ar    0  LIG0        0.1816
      9  N21       -0.5210    4.6460    0.3490 N.ar    0  LIG0       -0.2193
     10  C36       -0.0050    5.7130   -0.2940 C.ar    0  LIG0        0.1518
     11  C43       -2.4180    7.3640    1.8230 C.3     0  LIG0        0.2409
     12  O25       -2.7830    6.7850    3.0670 O.3     0  LIG0       -0.3306
     13  C44       -4.1890    6.7160    3.1310 C.3     0  LIG0        0.1801
     14  C40       -4.6000    5.5270    3.9700 C.3     0  LIG0        0.1813
     15  O30       -3.9870    4.3780    3.4660 O.3     0  LIG0       -0.3112
     16  P46       -4.7850    2.9740    3.4440 P.3     0  LIG0        0.2189
     17  O28       -5.5660    2.8080    4.7060 O.3     0  LIG0       -0.4371
     18  O18       -3.7910    1.9130    3.1120 O.2     0  LIG0       -0.5170
     19  O32       -5.7500    3.1700    2.1420 O.3     0  LIG0       -0.2700
     20  P47       -7.3410    3.3210    1.9510 P.3     0  LIG0        0.2277
     21  O29       -8.0080    3.6750    3.2520 O.3     0  LIG0       -0.4368
     22  O19       -7.5490    4.3090    0.8480 O.2     0  LIG0       -0.5168
     23  O31       -7.8300    1.8830    1.4070 O.3     0  LIG0       -0.2258
     24  P45       -7.9640    0.4480    2.1850 P.3     0  LIG0        0.5373
     25  O26       -8.7330    0.6970    3.4750 O.3     0  LIG0       -0.1143
     26  O27       -8.7420   -0.4380    1.2300 O.2     0  LIG0       -0.2221
     27  O17       -6.5870   -0.0520    2.4090 O.3     0  LIG0       -0.1143
     28  C41       -4.6530    6.6380    1.6860 C.3     0  LIG0        0.2161
     29  O23       -6.0040    7.0190    1.4960 O.3     0  LIG0       -0.2175
     30  C42       -3.6960    7.6220    1.0540 C.3     0  LIG0        0.2337
     31  O24       -4.1320    8.9630    1.2950 O.3     0  LIG0       -0.2155
@<TRIPOS>BOND
     1     1     2    1
     2     3     2   ar
     3     3     4   ar
     4     2    10   ar
     5     4     5   ar
     6    10     6   ar
     7    10     9   ar
     8     5     6   ar
     9     6     7   ar
    10     9     8   ar
    11    22    20    2
    12    30    31    1
    13    30    28    1
    14    30    11    1
    15     7     8   ar
    16     7    11    1
    17    26    24    2
    18    23    20    1
    19    23    24    1
    20    29    28    1
    21    28    13    1
    22    11    12    1
    23    20    19    1
    24    20    21    1
    25    19    16    1
    26    24    27    1
    27    24    25    1
    28    12    13    1
    29    18    16    2
    30    13    14    1
    31    16    15    1
    32    16    17    1
    33    15    14    1
