@<TRIPOS>MOLECULE
/Users/xuhangdai/Desktop/Projects/OptimalTransport/extra_bio_ligands_boltz_af3/boltz_results_6ln3_ATP/6ln3_ATP_model_21_chainB.pdb
 31 33 0 0 0
SMALL
GASTEIGER

@<TRIPOS>ATOM
      1  N38       -5.2130   -4.2630    1.9360 N.pl3   0  LIG0       -0.1054
      2  C34       -5.3170   -5.3670    1.1450 C.ar    0  LIG0        0.1919
      3  N20       -6.5310   -5.9340    0.9450 N.ar    0  LIG0       -0.2040
      4  C33       -6.6390   -7.0360    0.1580 C.ar    0  LIG0        0.2016
      5  N22       -5.6020   -7.6230   -0.4540 N.ar    0  LIG0       -0.2048
      6  C37       -4.3820   -7.0760   -0.2730 C.ar    0  LIG0        0.1692
      7  N39       -3.1760   -7.4340   -0.7530 N.ar    0  LIG0       -0.2693
      8  C35       -2.2510   -6.5490   -0.2860 C.ar    0  LIG0        0.1816
      9  N21       -2.8500   -5.6350    0.4900 N.ar    0  LIG0       -0.2193
     10  C36       -4.1660   -5.9350    0.5180 C.ar    0  LIG0        0.1518
     11  C43       -2.9600   -8.5900   -1.6260 C.3     0  LIG0        0.2409
     12  O25       -1.6160   -9.0460   -1.5350 O.3     0  LIG0       -0.3306
     13  C44       -1.0500   -9.0310   -2.8280 C.3     0  LIG0        0.1801
     14  C40        0.4350   -8.7600   -2.7400 C.3     0  LIG0        0.1813
     15  O30        0.6460   -7.5890   -2.0210 O.3     0  LIG0       -0.3112
     16  P46        1.8490   -6.5800   -2.4250 P.3     0  LIG0        0.2189
     17  O28        3.0570   -7.3610   -2.8410 O.2     0  LIG0       -0.5170
     18  O18        2.0190   -5.6410   -1.2840 O.3     0  LIG0       -0.4371
     19  O32        1.2140   -5.7330   -3.6690 O.3     0  LIG0       -0.2700
     20  P47        1.4090   -5.7700   -5.2700 P.3     0  LIG0        0.2277
     21  O29        2.1160   -7.0320   -5.6980 O.3     0  LIG0       -0.4368
     22  O19        0.0540   -5.5790   -5.8770 O.2     0  LIG0       -0.5168
     23  O31        2.2850   -4.4630   -5.6400 O.3     0  LIG0       -0.2258
     24  P45        3.7560   -3.9750   -5.1360 P.3     0  LIG0        0.5373
     25  O26        4.6210   -5.2020   -4.9480 O.3     0  LIG0       -0.1143
     26  O27        4.2870   -3.0860   -6.2480 O.2     0  LIG0       -0.2221
     27  O17        3.5300   -3.2120   -3.8810 O.3     0  LIG0       -0.1143
     28  C41       -1.8160   -7.9640   -3.5930 C.3     0  LIG0        0.2161
     29  O23       -1.7380   -8.1000   -5.0030 O.3     0  LIG0       -0.2175
     30  C42       -3.2100   -8.2260   -3.0770 C.3     0  LIG0        0.2337
     31  O24       -3.7910   -9.3430   -3.7600 O.3     0  LIG0       -0.2155
@<TRIPOS>BOND
     1    26    24    2
     2    22    20    2
     3    21    20    1
     4    23    20    1
     5    23    24    1
     6    20    19    1
     7    24    25    1
     8    24    27    1
     9    29    28    1
    10    31    30    1
    11    19    16    1
    12    28    30    1
    13    28    13    1
    14    30    11    1
    15    17    16    2
    16    13    14    1
    17    13    12    1
    18    14    15    1
    19    16    15    1
    20    16    18    1
    21    11    12    1
    22    11     7    1
    23     7     8   ar
    24     7     6   ar
    25     5     6   ar
    26     5     4   ar
    27     8     9   ar
    28     6    10   ar
    29     4     3   ar
    30     9    10   ar
    31    10     2   ar
    32     3     2   ar
    33     2     1    1
