@<TRIPOS>MOLECULE
/Users/xuhangdai/Desktop/Projects/OptimalTransport/extra_bio_ligands_boltz_af3/boltz_results_6ln3_ATP/6ln3_ATP_model_39_chainB.pdb
 31 33 0 0 0
SMALL
GASTEIGER

@<TRIPOS>ATOM
      1  N38       -2.3950   -6.5110   -2.6910 N.pl3   0  LIG0       -0.1054
      2  C34       -3.0720   -6.2370   -3.8400 C.ar    0  LIG0        0.1919
      3  N20       -3.9390   -7.1470   -4.3370 N.ar    0  LIG0       -0.2040
      4  C33       -4.6140   -6.8790   -5.4820 C.ar    0  LIG0        0.2016
      5  N22       -4.4800   -5.7500   -6.1850 N.ar    0  LIG0       -0.2048
      6  C37       -3.6200   -4.8260   -5.7110 C.ar    0  LIG0        0.1692
      7  N39       -3.2840   -3.6150   -6.1850 N.ar    0  LIG0       -0.2693
      8  C35       -2.3730   -3.0590   -5.3360 C.ar    0  LIG0        0.1816
      9  N21       -2.1240   -3.9020   -4.3270 N.ar    0  LIG0       -0.2193
     10  C36       -2.8800   -5.0030   -4.5310 C.ar    0  LIG0        0.1518
     11  C43       -3.8300   -3.0480   -7.4130 C.3     0  LIG0        0.2409
     12  O25       -2.9260   -2.1050   -7.9640 O.3     0  LIG0       -0.3306
     13  C44       -3.5900   -0.8690   -8.0900 C.3     0  LIG0        0.1801
     14  C40       -2.6000    0.2590   -7.9250 C.3     0  LIG0        0.1813
     15  O30       -1.9410    0.1040   -6.7130 O.3     0  LIG0       -0.3112
     16  P46       -1.5050    1.3850   -5.8360 P.3     0  LIG0        0.2189
     17  O28       -1.0770    2.4990   -6.7220 O.2     0  LIG0       -0.5170
     18  O18       -0.5200    0.9010   -4.8440 O.3     0  LIG0       -0.4371
     19  O32       -2.8680    1.7460   -5.0230 O.3     0  LIG0       -0.2700
     20  P47       -4.0240    2.8380   -5.2230 P.3     0  LIG0        0.2277
     21  O29       -3.8590    3.5640   -6.5220 O.2     0  LIG0       -0.5168
     22  O19       -5.3260    2.1230   -5.0710 O.3     0  LIG0       -0.4368
     23  O31       -3.8770    3.8410   -3.9670 O.3     0  LIG0       -0.2258
     24  P45       -2.6480    4.8240   -3.5360 P.3     0  LIG0        0.5373
     25  O26       -2.1620    5.5280   -4.7780 O.2     0  LIG0       -0.2221
     26  O27       -3.2570    5.7940   -2.5470 O.3     0  LIG0       -0.1143
     27  O17       -1.6260    3.9710   -2.9000 O.3     0  LIG0       -0.1143
     28  C41       -4.6750   -0.8850   -7.0290 C.3     0  LIG0        0.2161
     29  O23       -5.7280    0.0250   -7.2750 O.3     0  LIG0       -0.2175
     30  C42       -5.1300   -2.3200   -7.1400 C.3     0  LIG0        0.2337
     31  O24       -6.0090   -2.4770   -8.2550 O.3     0  LIG0       -0.2155
@<TRIPOS>BOND
     1    31    30    1
     2    13    12    1
     3    13    14    1
     4    13    28    1
     5    12    11    1
     6    14    15    1
     7    11    30    1
     8    11     7    1
     9    29    28    1
    10    30    28    1
    11    17    16    2
    12    15    16    1
    13    21    20    2
    14     5     6   ar
    15     5     4   ar
    16     7     6   ar
    17     7     8   ar
    18    16    19    1
    19    16    18    1
    20     6    10   ar
    21     4     3   ar
    22     8     9   ar
    23    20    22    1
    24    20    19    1
    25    20    23    1
    26    25    24    2
    27    10     9   ar
    28    10     2   ar
    29     3     2   ar
    30    23    24    1
    31     2     1    1
    32    24    27    1
    33    24    26    1
