@<TRIPOS>MOLECULE
/Users/xuhangdai/Desktop/Projects/OptimalTransport/extra_bio_ligands_boltz_af3/boltz_results_6ln3_ATP/6ln3_ATP_model_24_chainB.pdb
 31 33 0 0 0
SMALL
GASTEIGER

@<TRIPOS>ATOM
      1  N38       -0.7660    4.3880   -2.2320 N.pl3   0  LIG0       -0.1054
      2  C34       -0.5090    5.2890   -1.2460 C.ar    0  LIG0        0.1919
      3  N20       -1.0240    6.5350   -1.3300 N.ar    0  LIG0       -0.2040
      4  C33       -0.7680    7.4340   -0.3510 C.ar    0  LIG0        0.2016
      5  N22       -0.0210    7.1790    0.7290 N.ar    0  LIG0       -0.2048
      6  C37        0.5020    5.9400    0.8380 C.ar    0  LIG0        0.1692
      7  N39        1.2740    5.3980    1.7910 N.ar    0  LIG0       -0.2693
      8  C35        1.5330    4.1080    1.4450 C.ar    0  LIG0        0.1816
      9  N21        0.9380    3.8240    0.2810 N.ar    0  LIG0       -0.2193
     10  C36        0.2930    4.9360   -0.1200 C.ar    0  LIG0        0.1518
     11  C43        1.7370    6.1240    2.9680 C.3     0  LIG0        0.2409
     12  O25        2.9340    5.5400    3.4480 O.3     0  LIG0       -0.3306
     13  C44        2.7370    5.1590    4.7880 C.3     0  LIG0        0.1801
     14  C40        3.5710    3.9360    5.0810 C.3     0  LIG0        0.1813
     15  O30        3.2270    2.9260    4.1830 O.3     0  LIG0       -0.3112
     16  P46        3.3000    1.3770    4.6260 P.3     0  LIG0        0.2189
     17  O28        4.4440    1.1510    5.5570 O.3     0  LIG0       -0.4371
     18  O18        3.2830    0.5810    3.3720 O.2     0  LIG0       -0.5170
     19  O32        1.8760    1.1160    5.3640 O.3     0  LIG0       -0.2700
     20  P47        1.3720    1.3230    6.8740 P.3     0  LIG0        0.2277
     21  O29        2.4520    1.9670    7.7030 O.3     0  LIG0       -0.4368
     22  O19        0.0860    2.0850    6.8220 O.2     0  LIG0       -0.5168
     23  O31        1.0370   -0.1530    7.4210 O.3     0  LIG0       -0.2258
     24  P45        1.7910   -1.5810    7.2000 P.3     0  LIG0        0.5373
     25  O26        3.2770   -1.3450    7.3220 O.3     0  LIG0       -0.1143
     26  O27        1.2820   -2.4870    8.3090 O.3     0  LIG0       -0.1143
     27  O17        1.3750   -2.0690    5.8630 O.2     0  LIG0       -0.2221
     28  C41        1.2440    4.9250    4.9330 C.3     0  LIG0        0.2161
     29  O23        0.7770    5.0030    6.2690 O.3     0  LIG0       -0.2175
     30  C42        0.7190    6.0600    4.0890 C.3     0  LIG0        0.2337
     31  O24        0.7440    7.2850    4.8320 O.3     0  LIG0       -0.2155
@<TRIPOS>BOND
     1     1     2    1
     2     3     2   ar
     3     3     4   ar
     4     2    10   ar
     5     4     5   ar
     6    10     9   ar
     7    10     6   ar
     8     9     8   ar
     9     5     6   ar
    10     6     7   ar
    11     8     7   ar
    12     7    11    1
    13    11    12    1
    14    11    30    1
    15    18    16    2
    16    12    13    1
    17    30    31    1
    18    30    28    1
    19    15    16    1
    20    15    14    1
    21    16    19    1
    22    16    17    1
    23    13    28    1
    24    13    14    1
    25    28    29    1
    26    19    20    1
    27    27    24    2
    28    22    20    2
    29    20    23    1
    30    20    21    1
    31    24    25    1
    32    24    23    1
    33    24    26    1
