@<TRIPOS>MOLECULE
/Users/xuhangdai/Desktop/Projects/OptimalTransport/extra_bio_ligands_boltz_af3/boltz_results_6ln3_ATP/6ln3_ATP_model_20_chainB.pdb
 31 33 0 0 0
SMALL
GASTEIGER

@<TRIPOS>ATOM
      1  N38        4.4090   -1.2420   -5.1670 N.pl3   0  LIG0       -0.1054
      2  C34        5.4720   -1.6230   -4.4040 C.ar    0  LIG0        0.1919
      3  N20        6.7310   -1.4340   -4.8670 N.ar    0  LIG0       -0.2040
      4  C33        7.7930   -1.8110   -4.1090 C.ar    0  LIG0        0.2016
      5  N22        7.6860   -2.3790   -2.9010 N.ar    0  LIG0       -0.2048
      6  C37        6.4410   -2.5780   -2.4160 C.ar    0  LIG0        0.1692
      7  N39        6.0260   -3.1110   -1.2550 N.ar    0  LIG0       -0.2693
      8  C35        4.6610   -3.0820   -1.2330 C.ar    0  LIG0        0.1816
      9  N21        4.2040   -2.5360   -2.3660 N.ar    0  LIG0       -0.2193
     10  C36        5.2800   -2.2180   -3.1180 C.ar    0  LIG0        0.1518
     11  C43        6.9370   -3.6280   -0.2330 C.3     0  LIG0        0.2409
     12  O25        6.2820   -4.5970    0.5710 O.3     0  LIG0       -0.3306
     13  C44        6.3450   -4.1770    1.9160 C.3     0  LIG0        0.1801
     14  C40        5.1230   -4.6670    2.6570 C.3     0  LIG0        0.1813
     15  O30        3.9790   -4.2600    1.9700 O.3     0  LIG0       -0.3112
     16  P46        2.6480   -3.8340    2.7810 P.3     0  LIG0        0.2189
     17  O28        2.4510   -4.7260    3.9580 O.3     0  LIG0       -0.4371
     18  O18        1.5410   -3.7620    1.7880 O.2     0  LIG0       -0.5170
     19  O32        2.9920   -2.3060    3.2310 O.3     0  LIG0       -0.2700
     20  P47        3.4130   -1.6270    4.6220 P.3     0  LIG0        0.2277
     21  O29        3.8260   -2.6680    5.6240 O.3     0  LIG0       -0.4368
     22  O19        4.4610   -0.6080    4.3030 O.2     0  LIG0       -0.5168
     23  O31        2.1010   -0.8290    5.1150 O.3     0  LIG0       -0.2258
     24  P45        0.6050   -1.3650    5.4950 P.3     0  LIG0        0.5373
     25  O26        0.7490   -2.6910    6.2040 O.3     0  LIG0       -0.1143
     26  O27        0.0300   -0.2970    6.4080 O.3     0  LIG0       -0.1143
     27  O17       -0.1410   -1.4500    4.2150 O.2     0  LIG0       -0.2221
     28  C41        6.4560   -2.6620    1.8580 C.3     0  LIG0        0.2161
     29  O23        6.9780   -2.0770    3.0330 O.3     0  LIG0       -0.2175
     30  C42        7.3980   -2.5170    0.6860 C.3     0  LIG0        0.2337
     31  O24        8.7460   -2.7600    1.0980 O.3     0  LIG0       -0.2155
@<TRIPOS>BOND
     1     1     2    1
     2     3     2   ar
     3     3     4   ar
     4     2    10   ar
     5     4     5   ar
     6    10     6   ar
     7    10     9   ar
     8     5     6   ar
     9     6     7   ar
    10     9     8   ar
    11     7     8   ar
    12     7    11    1
    13    11    12    1
    14    11    30    1
    15    12    13    1
    16    30    31    1
    17    30    28    1
    18    18    16    2
    19    28    13    1
    20    28    29    1
    21    13    14    1
    22    15    14    1
    23    15    16    1
    24    16    19    1
    25    16    17    1
    26    19    20    1
    27    27    24    2
    28    22    20    2
    29    20    23    1
    30    20    21    1
    31    23    24    1
    32    24    25    1
    33    24    26    1
