@<TRIPOS>MOLECULE
/Users/xuhangdai/Desktop/Projects/OptimalTransport/extra_bio_ligands_boltz_af3/boltz_results_6ln3_ATP/6ln3_ATP_model_46_chainB.pdb
 31 33 0 0 0
SMALL
GASTEIGER

@<TRIPOS>ATOM
      1  N38        1.8580    4.5400   -0.3070 N.pl3   0  LIG0       -0.1054
      2  C34        1.8530    5.2780    0.8350 C.ar    0  LIG0        0.1919
      3  N20        1.8450    6.6300    0.7570 N.ar    0  LIG0       -0.2040
      4  C33        1.8380    7.3670    1.8930 C.ar    0  LIG0        0.2016
      5  N22        1.8450    6.8490    3.1290 N.ar    0  LIG0       -0.2048
      6  C37        1.8530    5.5050    3.2310 C.ar    0  LIG0        0.1692
      7  N39        1.8580    4.7110    4.3100 N.ar    0  LIG0       -0.2693
      8  C35        1.8560    3.4150    3.8890 C.ar    0  LIG0        0.1816
      9  N21        1.8530    3.3780    2.5560 N.ar    0  LIG0       -0.2193
     10  C36        1.8540    4.6540    2.1190 C.ar    0  LIG0        0.1518
     11  C43        1.8750    5.2100    5.6810 C.3     0  LIG0        0.2409
     12  O25        2.4210    4.2340    6.5480 O.3     0  LIG0       -0.3306
     13  C44        1.4760    3.9580    7.5540 C.3     0  LIG0        0.1801
     14  C40        1.6250    2.5280    8.0060 C.3     0  LIG0        0.1813
     15  O30        1.5270    1.6860    6.9090 O.3     0  LIG0       -0.3112
     16  P46        0.8500    0.2330    7.0640 P.3     0  LIG0        0.2189
     17  O28        1.1750   -0.3510    8.3980 O.3     0  LIG0       -0.4371
     18  O18        1.2440   -0.5450    5.8650 O.2     0  LIG0       -0.5170
     19  O32       -0.7370    0.5630    6.9230 O.3     0  LIG0       -0.2700
     20  P47       -1.9070    0.8250    7.9850 P.3     0  LIG0        0.2277
     21  O29       -1.3490    0.9410    9.3770 O.3     0  LIG0       -0.4368
     22  O19       -2.6690    2.0180    7.5140 O.2     0  LIG0       -0.5168
     23  O31       -2.8750   -0.4530    7.8510 O.3     0  LIG0       -0.2258
     24  P45       -2.5340   -2.0420    7.9010 P.3     0  LIG0        0.5373
     25  O26       -1.4930   -2.2640    8.9670 O.3     0  LIG0       -0.1143
     26  O27       -3.8450   -2.7150    8.2570 O.3     0  LIG0       -0.1143
     27  O17       -2.0790   -2.4120    6.5430 O.2     0  LIG0       -0.2221
     28  C41        0.1260    4.2650    6.9340 C.3     0  LIG0        0.2161
     29  O23       -0.9030    4.4920    7.8760 O.3     0  LIG0       -0.2175
     30  C42        0.4760    5.5140    6.1670 C.3     0  LIG0        0.2337
     31  O24        0.5050    6.6400    7.0470 O.3     0  LIG0       -0.2155
@<TRIPOS>BOND
     1     1     2    1
     2     3     2   ar
     3     3     4   ar
     4     2    10   ar
     5     4     5   ar
     6    10     9   ar
     7    10     6   ar
     8     9     8   ar
     9     5     6   ar
    10     6     7   ar
    11     8     7   ar
    12     7    11    1
    13    11    30    1
    14    11    12    1
    15    18    16    2
    16    30    28    1
    17    30    31    1
    18    27    24    2
    19    12    13    1
    20    15    16    1
    21    15    14    1
    22    19    16    1
    23    19    20    1
    24    28    13    1
    25    28    29    1
    26    16    17    1
    27    22    20    2
    28    13    14    1
    29    23    24    1
    30    23    20    1
    31    24    26    1
    32    24    25    1
    33    20    21    1
