@<TRIPOS>MOLECULE
/Users/xuhangdai/Desktop/Projects/OptimalTransport/extra_bio_ligands_boltz_af3/boltz_results_6ln3_ATP/6ln3_ATP_model_3_chainB.pdb
 31 33 0 0 0
SMALL
GASTEIGER

@<TRIPOS>ATOM
      1  N38       -5.2010   -0.6160   -1.7590 N.pl3   0  LIG0       -0.1054
      2  C34       -5.6940    0.4200   -2.4900 C.ar    0  LIG0        0.1919
      3  N20       -7.0240    0.6800   -2.4730 N.ar    0  LIG0       -0.2040
      4  C33       -7.5160    1.7160   -3.2010 C.ar    0  LIG0        0.2016
      5  N22       -6.7680    2.5220   -3.9640 N.ar    0  LIG0       -0.2048
      6  C37       -5.4400    2.2830   -3.9980 C.ar    0  LIG0        0.1692
      7  N39       -4.4550    2.9120   -4.6580 N.ar    0  LIG0       -0.2693
      8  C35       -3.2770    2.2930   -4.3570 C.ar    0  LIG0        0.1816
      9  N21       -3.5010    1.2770   -3.5180 N.ar    0  LIG0       -0.2193
     10  C36       -4.8310    1.2430   -3.2780 C.ar    0  LIG0        0.1518
     11  C43       -4.6720    4.0590   -5.5370 C.3     0  LIG0        0.2409
     12  O25       -3.6490    4.1270   -6.5140 O.3     0  LIG0       -0.3306
     13  C44       -3.0200    5.3860   -6.4090 C.3     0  LIG0        0.1801
     14  C40       -1.5720    5.2610   -6.8060 C.3     0  LIG0        0.1813
     15  O30       -0.9750    4.2650   -6.0440 O.3     0  LIG0       -0.3112
     16  P46        0.5510    4.4180   -5.5400 P.3     0  LIG0        0.2189
     17  O28        1.3860    5.0270   -6.6190 O.2     0  LIG0       -0.5170
     18  O18        0.9730    3.0900   -5.0300 O.3     0  LIG0       -0.4371
     19  O32        0.4040    5.4070   -4.2610 O.3     0  LIG0       -0.2700
     20  P47        0.7040    6.9620   -4.0180 P.3     0  LIG0        0.2277
     21  O29        0.9600    7.6680   -5.3220 O.2     0  LIG0       -0.5168
     22  O19       -0.4410    7.5020   -3.2350 O.3     0  LIG0       -0.4368
     23  O31        2.0050    6.9930   -3.0760 O.3     0  LIG0       -0.2258
     24  P45        3.5180    6.4360   -3.3140 P.3     0  LIG0        0.5373
     25  O26        3.8120    6.5080   -4.7950 O.2     0  LIG0       -0.2221
     26  O27        4.4140    7.3720   -2.5250 O.3     0  LIG0       -0.1143
     27  O17        3.5520    5.0580   -2.7730 O.3     0  LIG0       -0.1143
     28  C41       -3.2180    5.8160   -4.9670 C.3     0  LIG0        0.2161
     29  O23       -3.0710    7.2070   -4.7580 O.3     0  LIG0       -0.2175
     30  C42       -4.6380    5.3570   -4.7580 C.3     0  LIG0        0.2337
     31  O24       -5.5490    6.2930   -5.3400 O.3     0  LIG0       -0.2155
@<TRIPOS>BOND
     1    14    13    1
     2    14    15    1
     3    17    16    2
     4    12    13    1
     5    12    11    1
     6    13    28    1
     7    15    16    1
     8    16    18    1
     9    16    19    1
    10    11    30    1
    11    11     7    1
    12    31    30    1
    13    21    20    2
    14    28    29    1
    15    28    30    1
    16    25    24    2
    17     7     8   ar
    18     7     6   ar
    19     8     9   ar
    20    19    20    1
    21    20    22    1
    22    20    23    1
    23     6     5   ar
    24     6    10   ar
    25     5     4   ar
    26     9    10   ar
    27    24    23    1
    28    24    27    1
    29    24    26    1
    30    10     2   ar
    31     4     3   ar
    32     2     3   ar
    33     2     1    1
