@<TRIPOS>MOLECULE
/Users/xuhangdai/Desktop/Projects/OptimalTransport/extra_bio_ligands_boltz_af3/boltz_results_6ln3_ATP/6ln3_ATP_model_10_chainB.pdb
 31 33 0 0 0
SMALL
GASTEIGER

@<TRIPOS>ATOM
      1  N38       -3.2030   -0.5240    6.7980 N.pl3   0  LIG0       -0.1054
      2  C34       -4.3400    0.1660    7.0860 C.ar    0  LIG0        0.1919
      3  N20       -4.7520    0.2680    8.3710 N.ar    0  LIG0       -0.2040
      4  C33       -5.8850    0.9550    8.6610 C.ar    0  LIG0        0.2016
      5  N22       -6.6570    1.5520    7.7430 N.ar    0  LIG0       -0.2048
      6  C37       -6.2700    1.4640    6.4550 C.ar    0  LIG0        0.1692
      7  N39       -6.8270    1.9560    5.3350 N.ar    0  LIG0       -0.2693
      8  C35       -6.0430    1.5990    4.2780 C.ar    0  LIG0        0.1816
      9  N21       -4.9990    0.8870    4.7090 N.ar    0  LIG0       -0.2193
     10  C36       -5.1100    0.7830    6.0510 C.ar    0  LIG0        0.1518
     11  C43       -8.0690    2.7310    5.3140 C.3     0  LIG0        0.2409
     12  O25       -8.6880    2.6500    4.0330 O.3     0  LIG0       -0.3306
     13  C44       -8.8370    3.9560    3.5220 C.3     0  LIG0        0.1801
     14  C40       -8.7470    3.9250    2.0140 C.3     0  LIG0        0.1813
     15  O30       -7.5700    3.2750    1.6430 O.3     0  LIG0       -0.3112
     16  P46       -6.7350    3.7690    0.3450 P.3     0  LIG0        0.2189
     17  O28       -7.6720    4.1350   -0.7570 O.2     0  LIG0       -0.5170
     18  O18       -5.7190    2.7200    0.0570 O.3     0  LIG0       -0.4371
     19  O32       -5.9410    5.0680    0.9270 O.3     0  LIG0       -0.2700
     20  P47       -6.0420    6.6480    0.6460 P.3     0  LIG0        0.2277
     21  O29       -7.3340    6.9980   -0.0420 O.2     0  LIG0       -0.5168
     22  O19       -5.8360    7.3240    1.9620 O.3     0  LIG0       -0.4368
     23  O31       -4.7730    6.9870   -0.2910 O.3     0  LIG0       -0.2258
     24  P45       -4.4900    6.7000   -1.8710 P.3     0  LIG0        0.5373
     25  O26       -5.8170    6.5000   -2.5710 O.2     0  LIG0       -0.2221
     26  O27       -3.7780    7.9420   -2.3780 O.3     0  LIG0       -0.1143
     27  O17       -3.6140    5.5020   -1.9260 O.3     0  LIG0       -0.1143
     28  C41       -7.7410    4.7730    4.1850 C.3     0  LIG0        0.2161
     29  O23       -7.9860    6.1690    4.1760 O.3     0  LIG0       -0.2175
     30  C42       -7.7960    4.1960    5.5800 C.3     0  LIG0        0.2337
     31  O24       -8.8890    4.7620    6.3070 O.3     0  LIG0       -0.2155
@<TRIPOS>BOND
     1    25    24    2
     2    26    24    1
     3    27    24    1
     4    24    23    1
     5    17    16    2
     6    23    20    1
     7    21    20    2
     8    18    16    1
     9    16    19    1
    10    16    15    1
    11    20    19    1
    12    20    22    1
    13    15    14    1
    14    14    13    1
    15    13    12    1
    16    13    28    1
    17    12    11    1
    18    29    28    1
    19    28    30    1
    20     8     9   ar
    21     8     7   ar
    22     9    10   ar
    23    11     7    1
    24    11    30    1
    25     7     6   ar
    26    30    31    1
    27    10     6   ar
    28    10     2   ar
    29     6     5   ar
    30     1     2    1
    31     2     3   ar
    32     5     4   ar
    33     3     4   ar
