@<TRIPOS>MOLECULE
/Users/xuhangdai/Desktop/Projects/OptimalTransport/extra_bio_ligands_boltz_af3/boltz_results_6ln3_ATP/6ln3_ATP_model_12_chainB.pdb
 31 33 0 0 0
SMALL
GASTEIGER

@<TRIPOS>ATOM
      1  N38        1.0530   -3.0530    7.0550 N.pl3   0  LIG0       -0.1054
      2  C34        0.6430   -4.3410    7.2240 C.ar    0  LIG0        0.1919
      3  N20        0.4270   -4.8170    8.4730 N.ar    0  LIG0       -0.2040
      4  C33        0.0180   -6.1010    8.6440 C.ar    0  LIG0        0.2016
      5  N22       -0.1900   -6.9630    7.6370 N.ar    0  LIG0       -0.2048
      6  C37        0.0170   -6.5110    6.3840 C.ar    0  LIG0        0.1692
      7  N39       -0.1120   -7.1300    5.1970 N.ar    0  LIG0       -0.2693
      8  C35        0.2090   -6.2380    4.2190 C.ar    0  LIG0        0.1816
      9  N21        0.5400   -5.0620    4.7640 N.ar    0  LIG0       -0.2193
     10  C36        0.4330   -5.1990    6.1020 C.ar    0  LIG0        0.1518
     11  C43       -0.5180   -8.5280    5.0440 C.3     0  LIG0        0.2409
     12  O25       -0.0600   -9.0410    3.8020 O.3     0  LIG0       -0.3306
     13  C44       -1.1740   -9.4960    3.0630 C.3     0  LIG0        0.1801
     14  C40       -0.9170   -9.3070    1.5850 C.3     0  LIG0        0.1813
     15  O30       -0.5880   -7.9780    1.3540 O.3     0  LIG0       -0.3112
     16  P46       -0.8720   -7.2910   -0.0790 P.3     0  LIG0        0.2189
     17  O28       -0.6800   -8.2820   -1.1780 O.2     0  LIG0       -0.5170
     18  O18       -0.0310   -6.0660   -0.1390 O.3     0  LIG0       -0.4371
     19  O32       -2.4190   -6.8000    0.0370 O.3     0  LIG0       -0.2700
     20  P47       -3.8210   -7.4680   -0.3740 P.3     0  LIG0        0.2277
     21  O29       -3.6150   -8.8230   -0.9890 O.2     0  LIG0       -0.5168
     22  O19       -4.6920   -7.4620    0.8430 O.3     0  LIG0       -0.4368
     23  O31       -4.4570   -6.4390   -1.4450 O.3     0  LIG0       -0.2258
     24  P45       -3.8150   -5.8050   -2.8060 P.3     0  LIG0        0.5373
     25  O26       -2.9650   -6.8680   -3.4640 O.3     0  LIG0       -0.1143
     26  O27       -4.9970   -5.4210   -3.6810 O.2     0  LIG0       -0.2221
     27  O17       -3.0370   -4.6070   -2.3910 O.3     0  LIG0       -0.1143
     28  C41       -2.3550   -8.6950    3.5740 C.3     0  LIG0        0.2161
     29  O23       -3.6140   -9.2950    3.3140 O.3     0  LIG0       -0.2175
     30  C42       -2.0290   -8.6680    5.0460 C.3     0  LIG0        0.2337
     31  O24       -2.4000   -9.9100    5.6520 O.3     0  LIG0       -0.2155
@<TRIPOS>BOND
     1    26    24    2
     2    25    24    1
     3    24    27    1
     4    24    23    1
     5    23    20    1
     6    17    16    2
     7    21    20    2
     8    20    19    1
     9    20    22    1
    10    18    16    1
    11    16    19    1
    12    16    15    1
    13    15    14    1
    14    14    13    1
    15    13    28    1
    16    13    12    1
    17    29    28    1
    18    28    30    1
    19    12    11    1
    20     8     9   ar
    21     8     7   ar
    22     9    10   ar
    23    11    30    1
    24    11     7    1
    25    30    31    1
    26     7     6   ar
    27    10     6   ar
    28    10     2   ar
    29     6     5   ar
    30     1     2    1
    31     2     3   ar
    32     5     4   ar
    33     3     4   ar
