@<TRIPOS>MOLECULE
/Users/xuhangdai/Desktop/Projects/OptimalTransport/extra_bio_ligands_boltz_af3/boltz_results_6ln3_ATP/6ln3_ATP_model_0_chainB.pdb
 31 33 0 0 0
SMALL
GASTEIGER

@<TRIPOS>ATOM
      1  N38        4.7030   -4.2230   -4.8910 N.pl3   0  LIG0       -0.1054
      2  C34        5.3130   -5.3040   -4.3300 C.ar    0  LIG0        0.1919
      3  N20        6.6070   -5.5700   -4.6290 N.ar    0  LIG0       -0.2040
      4  C33        7.2190   -6.6460   -4.0750 C.ar    0  LIG0        0.2016
      5  N22        6.6240   -7.4940   -3.2270 N.ar    0  LIG0       -0.2048
      6  C37        5.3350   -7.2500   -2.9110 C.ar    0  LIG0        0.1692
      7  N39        4.4930   -7.9110   -2.1020 N.ar    0  LIG0       -0.2693
      8  C35        3.2940   -7.2590   -2.1100 C.ar    0  LIG0        0.1816
      9  N21        3.3670   -6.1930   -2.9150 N.ar    0  LIG0       -0.2193
     10  C36        4.6140   -6.1610   -3.4270 C.ar    0  LIG0        0.1518
     11  C43        4.8560   -9.1240   -1.3720 C.3     0  LIG0        0.2409
     12  O25        3.6970   -9.9020   -1.1250 O.3     0  LIG0       -0.3306
     13  C44        3.5950  -10.1180    0.2610 C.3     0  LIG0        0.1801
     14  C40        2.1420  -10.2460    0.6520 C.3     0  LIG0        0.1813
     15  O30        1.4490   -9.1290    0.1990 O.3     0  LIG0       -0.3112
     16  P46        0.2740   -8.4750    1.0950 P.3     0  LIG0        0.2189
     17  O28       -0.5510   -9.5470    1.7250 O.3     0  LIG0       -0.4371
     18  O18       -0.4290   -7.4940    0.2230 O.2     0  LIG0       -0.5170
     19  O32        1.1090   -7.6180    2.2000 O.3     0  LIG0       -0.2700
     20  P47        1.4540   -7.8380    3.7550 P.3     0  LIG0        0.2277
     21  O29        1.1170   -9.2340    4.1920 O.3     0  LIG0       -0.4368
     22  O19        2.8880   -7.4550    3.9310 O.2     0  LIG0       -0.5168
     23  O31        0.5650   -6.7410    4.5250 O.3     0  LIG0       -0.2258
     24  P45       -1.0500   -6.5600    4.6530 P.3     0  LIG0        0.5373
     25  O26       -1.6850   -7.9320    4.5900 O.3     0  LIG0       -0.1143
     26  O27       -1.2620   -5.9040    6.0060 O.3     0  LIG0       -0.1143
     27  O17       -1.4560   -5.6670    3.5380 O.2     0  LIG0       -0.2221
     28  C41        4.3000   -8.9380    0.9060 C.3     0  LIG0        0.2161
     29  O23        4.7080   -9.1740    2.2390 O.3     0  LIG0       -0.2175
     30  C42        5.4760   -8.7930   -0.0290 C.3     0  LIG0        0.2337
     31  O24        6.4830   -9.7590    0.2870 O.3     0  LIG0       -0.2155
@<TRIPOS>BOND
     1     1     2    1
     2     3     2   ar
     3     3     4   ar
     4     2    10   ar
     5     4     5   ar
     6    10     9   ar
     7    10     6   ar
     8     5     6   ar
     9     9     8   ar
    10     6     7   ar
    11     8     7   ar
    12     7    11    1
    13    11    12    1
    14    11    30    1
    15    12    13    1
    16    30    31    1
    17    30    28    1
    18    15    14    1
    19    15    16    1
    20    18    16    2
    21    13    14    1
    22    13    28    1
    23    28    29    1
    24    16    17    1
    25    16    19    1
    26    19    20    1
    27    27    24    2
    28    20    22    2
    29    20    21    1
    30    20    23    1
    31    23    24    1
    32    25    24    1
    33    24    26    1
