@<TRIPOS>MOLECULE
/Users/xuhangdai/Desktop/Projects/OptimalTransport/extra_bio_ligands_boltz_af3/boltz_results_6ln3_ATP/6ln3_ATP_model_30_chainB.pdb
 31 33 0 0 0
SMALL
GASTEIGER

@<TRIPOS>ATOM
      1  N38       -3.3450   -0.4740    3.9830 N.pl3   0  LIG0       -0.1054
      2  C34       -4.3290    0.4620    3.9130 C.ar    0  LIG0        0.1919
      3  N20       -4.8850    0.9360    5.0530 N.ar    0  LIG0       -0.2040
      4  C33       -5.8660    1.8710    4.9830 C.ar    0  LIG0        0.2016
      5  N22       -6.3450    2.3730    3.8380 N.ar    0  LIG0       -0.2048
      6  C37       -5.8060    1.9160    2.6900 C.ar    0  LIG0        0.1692
      7  N39       -6.0710    2.2290    1.4130 N.ar    0  LIG0       -0.2693
      8  C35       -5.2460    1.4980    0.6120 C.ar    0  LIG0        0.1816
      9  N21       -4.4620    0.7230    1.3620 N.ar    0  LIG0       -0.2193
     10  C36       -4.7850    0.9570    2.6530 C.ar    0  LIG0        0.1518
     11  C43       -7.0890    3.1940    1.0130 C.3     0  LIG0        0.2409
     12  O25       -7.5190    2.9400   -0.3160 O.3     0  LIG0       -0.3306
     13  C44       -7.3060    4.1050   -1.0830 C.3     0  LIG0        0.1801
     14  C40       -7.0050    3.7270   -2.5110 C.3     0  LIG0        0.1813
     15  O30       -5.9490    2.8230   -2.5260 O.3     0  LIG0       -0.3112
     16  P46       -4.8860    2.8290   -3.7400 P.3     0  LIG0        0.2189
     17  O28       -5.5810    3.0890   -5.0340 O.2     0  LIG0       -0.5170
     18  O18       -4.1040    1.5710   -3.6350 O.3     0  LIG0       -0.4371
     19  O32       -3.8950    4.0510   -3.3310 O.3     0  LIG0       -0.2700
     20  P47       -3.7200    5.5640   -3.8340 P.3     0  LIG0        0.2277
     21  O29       -4.8120    5.9510   -4.7930 O.2     0  LIG0       -0.5168
     22  O19       -3.6310    6.4180   -2.6140 O.3     0  LIG0       -0.4368
     23  O31       -2.2790    5.5860   -4.5590 O.3     0  LIG0       -0.2258
     24  P45       -1.7360    4.7870   -5.8730 P.3     0  LIG0        0.5373
     25  O26       -2.8680    4.7160   -6.8740 O.2     0  LIG0       -0.2221
     26  O27       -0.5790    5.6190   -6.3970 O.3     0  LIG0       -0.1143
     27  O17       -1.2810    3.4580   -5.3990 O.3     0  LIG0       -0.1143
     28  C41       -6.1670    4.8390   -0.3970 C.3     0  LIG0        0.2161
     29  O23       -6.1060    6.2170   -0.7080 O.3     0  LIG0       -0.2175
     30  C42       -6.5330    4.6030    1.0460 C.3     0  LIG0        0.2337
     31  O24       -7.5580    5.5100    1.4540 O.3     0  LIG0       -0.2155
@<TRIPOS>BOND
     1    25    24    2
     2    26    24    1
     3    24    27    1
     4    24    23    1
     5    17    16    2
     6    21    20    2
     7    23    20    1
     8    20    19    1
     9    20    22    1
    10    16    18    1
    11    16    19    1
    12    16    15    1
    13    15    14    1
    14    14    13    1
    15    13    28    1
    16    13    12    1
    17    29    28    1
    18    28    30    1
    19    12    11    1
    20     8     9   ar
    21     8     7   ar
    22    11    30    1
    23    11     7    1
    24    30    31    1
    25     9    10   ar
    26     7     6   ar
    27    10     6   ar
    28    10     2   ar
    29     6     5   ar
    30     5     4   ar
    31     2     1    1
    32     2     3   ar
    33     4     3   ar
