@<TRIPOS>MOLECULE
/Users/xuhangdai/Desktop/Projects/OptimalTransport/extra_bio_ligands_boltz_af3/boltz_results_6ln3_ATP/6ln3_ATP_model_7_chainB.pdb
 31 33 0 0 0
SMALL
GASTEIGER

@<TRIPOS>ATOM
      1  N38        6.2890   -4.7630    0.5430 N.pl3   0  LIG0       -0.1054
      2  C34        6.5170   -5.8720   -0.2160 C.ar    0  LIG0        0.1919
      3  N20        7.5150   -6.7210    0.1220 N.ar    0  LIG0       -0.2040
      4  C33        7.7410   -7.8270   -0.6340 C.ar    0  LIG0        0.2016
      5  N22        7.0340   -8.1500   -1.7250 N.ar    0  LIG0       -0.2048
      6  C37        6.0350   -7.3190   -2.0830 C.ar    0  LIG0        0.1692
      7  N39        5.1680   -7.3820   -3.1070 N.ar    0  LIG0       -0.2693
      8  C35        4.3410   -6.3010   -3.0300 C.ar    0  LIG0        0.1816
      9  N21        4.6680   -5.5530   -1.9700 N.ar    0  LIG0       -0.2193
     10  C36        5.7160   -6.1560   -1.3650 C.ar    0  LIG0        0.1518
     11  C43        5.1700   -8.4500   -4.1090 C.3     0  LIG0        0.2409
     12  O25        4.6080   -7.9820   -5.3270 O.3     0  LIG0       -0.3306
     13  C44        3.5290   -8.8220   -5.6730 C.3     0  LIG0        0.1801
     14  C40        2.4950   -8.0290   -6.4400 C.3     0  LIG0        0.1813
     15  O30        2.1460   -6.8980   -5.6940 O.3     0  LIG0       -0.3112
     16  P46        0.6100   -6.3880   -5.6430 P.3     0  LIG0        0.2189
     17  O28       -0.0150   -6.5110   -6.9990 O.2     0  LIG0       -0.5170
     18  O18        0.6230   -5.0330   -5.0260 O.3     0  LIG0       -0.4371
     19  O32       -0.0550   -7.4180   -4.5620 O.3     0  LIG0       -0.2700
     20  P47       -1.1550   -8.5900   -4.6650 P.3     0  LIG0        0.2277
     21  O29       -1.3690   -9.0170   -6.0910 O.2     0  LIG0       -0.5168
     22  O19       -0.7110   -9.6830   -3.7440 O.3     0  LIG0       -0.4368
     23  O31       -2.4970   -7.9490   -4.0400 O.3     0  LIG0       -0.2258
     24  P45       -3.5170   -6.8070   -4.5980 P.3     0  LIG0        0.5373
     25  O26       -3.2380   -6.5830   -6.0660 O.2     0  LIG0       -0.2221
     26  O27       -4.9110   -7.3740   -4.3670 O.3     0  LIG0       -0.1143
     27  O17       -3.2730   -5.5970   -3.7640 O.3     0  LIG0       -0.1143
     28  C41        3.0200   -9.3860   -4.3520 C.3     0  LIG0        0.2161
     29  O23        2.2620  -10.5730   -4.4880 O.3     0  LIG0       -0.2175
     30  C42        4.3360   -9.6300   -3.6500 C.3     0  LIG0        0.2337
     31  O24        4.9310  -10.8480   -4.1140 O.3     0  LIG0       -0.2155
@<TRIPOS>BOND
     1    17    16    2
     2    14    15    1
     3    14    13    1
     4    21    20    2
     5    25    24    2
     6    15    16    1
     7    13    12    1
     8    13    28    1
     9    16    18    1
    10    16    19    1
    11    12    11    1
    12    20    19    1
    13    20    23    1
    14    20    22    1
    15    24    26    1
    16    24    23    1
    17    24    27    1
    18    29    28    1
    19    28    30    1
    20    31    30    1
    21    11    30    1
    22    11     7    1
    23     7     8   ar
    24     7     6   ar
    25     8     9   ar
    26     6     5   ar
    27     6    10   ar
    28     9    10   ar
    29     5     4   ar
    30    10     2   ar
    31     4     3   ar
    32     2     3   ar
    33     2     1    1
