@<TRIPOS>MOLECULE
/Users/xuhangdai/Desktop/Projects/OptimalTransport/extra_bio_ligands_boltz_af3/boltz_results_6ln3_ATP/6ln3_ATP_model_23_chainB.pdb
 31 33 0 0 0
SMALL
GASTEIGER

@<TRIPOS>ATOM
      1  N38        0.4270    7.4150    1.4170 N.pl3   0  LIG0       -0.1054
      2  C34        0.6890    8.2710    0.3880 C.ar    0  LIG0        0.1919
      3  N20        0.8130    9.5960    0.6370 N.ar    0  LIG0       -0.2040
      4  C33        1.0730   10.4520   -0.3850 C.ar    0  LIG0        0.2016
      5  N22        1.2170   10.0740   -1.6640 N.ar    0  LIG0       -0.2048
      6  C37        1.0990    8.7560   -1.9390 C.ar    0  LIG0        0.1692
      7  N39        1.1920    8.0910   -3.1030 N.ar    0  LIG0       -0.2693
      8  C35        1.0010    6.7640   -2.8520 C.ar    0  LIG0        0.1816
      9  N21        0.7830    6.5740   -1.5430 N.ar    0  LIG0       -0.2193
     10  C36        0.8350    7.7890   -0.9520 C.ar    0  LIG0        0.1518
     11  C43        1.4530    8.7410   -4.3880 C.3     0  LIG0        0.2409
     12  O25        0.9230    7.9630   -5.4490 O.3     0  LIG0       -0.3306
     13  C44        1.9690    7.6640   -6.3470 C.3     0  LIG0        0.1801
     14  C40        1.6990    6.3350   -7.0130 C.3     0  LIG0        0.1813
     15  O30        1.5150    5.3640   -6.0250 O.3     0  LIG0       -0.3112
     16  P46        2.0900    3.8670   -6.2290 P.3     0  LIG0        0.2189
     17  O28        1.9200    3.4390   -7.6510 O.2     0  LIG0       -0.5170
     18  O18        1.4550    3.0210   -5.1840 O.3     0  LIG0       -0.4371
     19  O32        3.6600    4.0300   -5.8310 O.3     0  LIG0       -0.2700
     20  P47        5.0180    4.0990   -6.6870 P.3     0  LIG0        0.2277
     21  O29        4.7280    4.2980   -8.1500 O.2     0  LIG0       -0.5168
     22  O19        5.8650    5.1670   -6.0700 O.3     0  LIG0       -0.4368
     23  O31        5.7560    2.6930   -6.4240 O.3     0  LIG0       -0.2258
     24  P45        5.2870    1.1650   -6.7610 P.3     0  LIG0        0.5373
     25  O26        4.4700    1.1930   -8.0340 O.2     0  LIG0       -0.2221
     26  O27        6.5810    0.3840   -6.9400 O.3     0  LIG0       -0.1143
     27  O17        4.5240    0.6890   -5.5790 O.3     0  LIG0       -0.1143
     28  C41        3.2360    7.6830   -5.5090 C.3     0  LIG0        0.2161
     29  O23        4.4230    7.8540   -6.2620 O.3     0  LIG0       -0.2175
     30  C42        2.9450    8.8790   -4.6330 C.3     0  LIG0        0.2337
     31  O24        3.2030   10.0920   -5.3510 O.3     0  LIG0       -0.2155
@<TRIPOS>BOND
     1    21    20    2
     2    25    24    2
     3    17    16    2
     4    14    13    1
     5    14    15    1
     6    26    24    1
     7    24    23    1
     8    24    27    1
     9    20    23    1
    10    20    22    1
    11    20    19    1
    12    13    28    1
    13    13    12    1
    14    29    28    1
    15    16    15    1
    16    16    19    1
    17    16    18    1
    18    28    30    1
    19    12    11    1
    20    31    30    1
    21    30    11    1
    22    11     7    1
    23     7     8   ar
    24     7     6   ar
    25     8     9   ar
    26     6     5   ar
    27     6    10   ar
    28     5     4   ar
    29     9    10   ar
    30    10     2   ar
    31     4     3   ar
    32     2     3   ar
    33     2     1    1
