@<TRIPOS>MOLECULE
/Users/xuhangdai/Desktop/Projects/OptimalTransport/extra_bio_ligands_boltz_af3/boltz_results_6ln3_ATP/6ln3_ATP_model_6_chainB.pdb
 31 33 0 0 0
SMALL
GASTEIGER

@<TRIPOS>ATOM
      1  N38       -2.6070   -2.6870   -4.3990 N.pl3   0  LIG0       -0.1054
      2  C34       -2.1960   -2.5300   -5.6860 C.ar    0  LIG0        0.1919
      3  N20       -2.9800   -2.9780   -6.6940 N.ar    0  LIG0       -0.2040
      4  C33       -2.5720   -2.8230   -7.9790 C.ar    0  LIG0        0.2016
      5  N22       -1.4170   -2.2510   -8.3380 N.ar    0  LIG0       -0.2048
      6  C37       -0.6190   -1.7970   -7.3530 C.ar    0  LIG0        0.1692
      7  N39        0.5740   -1.1850   -7.4050 N.ar    0  LIG0       -0.2693
      8  C35        0.9700   -0.9150   -6.1290 C.ar    0  LIG0        0.1816
      9  N21        0.0430   -1.3480   -5.2650 N.ar    0  LIG0       -0.2193
     10  C36       -0.9510   -1.9010   -5.9930 C.ar    0  LIG0        0.1518
     11  C43        1.2770   -0.8940   -8.6530 C.3     0  LIG0        0.2409
     12  O25        2.6770   -0.8170   -8.4320 O.3     0  LIG0       -0.3306
     13  C44        3.1290    0.4390   -8.8900 C.3     0  LIG0        0.1801
     14  C40        4.3290    0.8720   -8.0830 C.3     0  LIG0        0.1813
     15  O30        4.0090    0.8270   -6.7240 O.3     0  LIG0       -0.3112
     16  P46        4.5610    1.9610   -5.7090 P.3     0  LIG0        0.2189
     17  O28        5.9650    2.3230   -6.0660 O.2     0  LIG0       -0.5170
     18  O18        4.3240    1.4540   -4.3330 O.3     0  LIG0       -0.4371
     19  O32        3.5180    3.1900   -5.9630 O.3     0  LIG0       -0.2700
     20  P47        3.6220    4.6240   -6.6910 P.3     0  LIG0        0.2277
     21  O29        4.8690    4.7350   -7.5170 O.2     0  LIG0       -0.5168
     22  O19        2.3460    4.8010   -7.4640 O.3     0  LIG0       -0.4368
     23  O31        3.6110    5.6990   -5.4930 O.3     0  LIG0       -0.2258
     24  P45        4.6840    5.9540   -4.2870 P.3     0  LIG0        0.5373
     25  O26        6.0720    5.7310   -4.8500 O.2     0  LIG0       -0.2221
     26  O27        4.4760    7.4010   -3.8720 O.3     0  LIG0       -0.1143
     27  O17        4.3240    5.0110   -3.2020 O.3     0  LIG0       -0.1143
     28  C41        1.9320    1.3640   -8.7610 C.3     0  LIG0        0.2161
     29  O23        2.0150    2.5280   -9.5620 O.3     0  LIG0       -0.2175
     30  C42        0.8370    0.4380   -9.2260 C.3     0  LIG0        0.2337
     31  O24        0.8240    0.3620  -10.6560 O.3     0  LIG0       -0.2155
@<TRIPOS>BOND
     1    31    30    1
     2    29    28    1
     3    30    28    1
     4    30    11    1
     5    13    28    1
     6    13    12    1
     7    13    14    1
     8    11    12    1
     9    11     7    1
    10     5     4   ar
    11     5     6   ar
    12    14    15    1
    13     4     3   ar
    14    21    20    2
    15    22    20    1
    16     7     6   ar
    17     7     8   ar
    18     6    10   ar
    19    15    16    1
    20     3     2   ar
    21    20    19    1
    22    20    23    1
    23     8     9   ar
    24    17    16    2
    25    10     2   ar
    26    10     9   ar
    27    19    16    1
    28    16    18    1
    29     2     1    1
    30    23    24    1
    31    25    24    2
    32    24    26    1
    33    24    27    1
