@<TRIPOS>MOLECULE
/Users/xuhangdai/Desktop/Projects/OptimalTransport/extra_bio_ligands_boltz_af3/boltz_results_6ln3_ATP/6ln3_ATP_model_37_chainB.pdb
 31 33 0 0 0
SMALL
GASTEIGER

@<TRIPOS>ATOM
      1  N38        4.9800    3.7920    2.8960 N.pl3   0  LIG0       -0.1054
      2  C34        4.8060    5.1330    2.7480 C.ar    0  LIG0        0.1919
      3  N20        5.8870    5.9400    2.6400 N.ar    0  LIG0       -0.2040
      4  C33        5.7170    7.2740    2.4940 C.ar    0  LIG0        0.2016
      5  N22        4.5250    7.8790    2.4440 N.ar    0  LIG0       -0.2048
      6  C37        3.4300    7.0970    2.5500 C.ar    0  LIG0        0.1692
      7  N39        2.1240    7.4050    2.5310 N.ar    0  LIG0       -0.2693
      8  C35        1.4080    6.2550    2.6610 C.ar    0  LIG0        0.1816
      9  N21        2.2420    5.2180    2.7650 N.ar    0  LIG0       -0.2193
     10  C36        3.4980    5.7040    2.6990 C.ar    0  LIG0        0.1518
     11  C43        1.6170    8.7670    2.3930 C.3     0  LIG0        0.2409
     12  O25        0.3180    8.8720    2.9520 O.3     0  LIG0       -0.3306
     13  C44       -0.5610    9.3330    1.9500 C.3     0  LIG0        0.1801
     14  C40       -1.9410    8.7710    2.1900 C.3     0  LIG0        0.1813
     15  O30       -1.8490    7.3920    2.2670 O.3     0  LIG0       -0.3112
     16  P46       -3.1060    6.4580    1.8740 P.3     0  LIG0        0.2189
     17  O28       -4.3880    7.1250    2.2510 O.2     0  LIG0       -0.5170
     18  O18       -2.8390    5.1230    2.4760 O.3     0  LIG0       -0.4371
     19  O32       -2.9530    6.2860    0.2640 O.3     0  LIG0       -0.2700
     20  P47       -3.5340    7.1020   -0.9920 P.3     0  LIG0        0.2277
     21  O29       -4.4170    8.2350   -0.5390 O.3     0  LIG0       -0.4368
     22  O19       -2.3630    7.5070   -1.8350 O.2     0  LIG0       -0.5168
     23  O31       -4.3830    6.0010   -1.8200 O.3     0  LIG0       -0.2258
     24  P45       -5.6190    5.0420   -1.3450 P.3     0  LIG0        0.5373
     25  O26       -6.5170    5.8670   -0.4390 O.3     0  LIG0       -0.1143
     26  O27       -6.3290    4.6420   -2.6250 O.2     0  LIG0       -0.2221
     27  O17       -5.0030    3.8720   -0.6630 O.3     0  LIG0       -0.1143
     28  C41        0.0560    8.8920    0.6350 C.3     0  LIG0        0.2161
     29  O23       -0.4020    9.6220   -0.4900 O.3     0  LIG0       -0.2175
     30  C42        1.5100    9.1590    0.9310 C.3     0  LIG0        0.2337
     31  O24        1.7950   10.5550    0.7870 O.3     0  LIG0       -0.2155
@<TRIPOS>BOND
     1    26    24    2
     2    22    20    2
     3    23    24    1
     4    23    20    1
     5    24    27    1
     6    24    25    1
     7    20    21    1
     8    20    19    1
     9    29    28    1
    10    19    16    1
    11    28    30    1
    12    28    13    1
    13    31    30    1
    14    30    11    1
    15    16    17    2
    16    16    15    1
    17    16    18    1
    18    13    14    1
    19    13    12    1
    20    14    15    1
    21    11     7    1
    22    11    12    1
    23     5     4   ar
    24     5     6   ar
    25     4     3   ar
    26     7     6   ar
    27     7     8   ar
    28     6    10   ar
    29     3     2   ar
    30     8     9   ar
    31    10     2   ar
    32    10     9   ar
    33     2     1    1
