@<TRIPOS>MOLECULE
/Users/xuhangdai/Desktop/Projects/OptimalTransport/extra_bio_ligands_boltz_af3/boltz_results_6ln3_ATP/6ln3_ATP_model_1_chainB.pdb
 31 33 0 0 0
SMALL
GASTEIGER

@<TRIPOS>ATOM
      1  N38        1.0950    1.9670   -6.9930 N.pl3   0  LIG0       -0.1054
      2  C34        2.2070    1.7350   -7.7450 C.ar    0  LIG0        0.1919
      3  N20        2.5280    2.5920   -8.7440 N.ar    0  LIG0       -0.2040
      4  C33        3.6360    2.3640   -9.4950 C.ar    0  LIG0        0.2016
      5  N22        4.4580    1.3220   -9.3250 N.ar    0  LIG0       -0.2048
      6  C37        4.1590    0.4530   -8.3370 C.ar    0  LIG0        0.1692
      7  N39        4.7870   -0.6650   -7.9300 N.ar    0  LIG0       -0.2693
      8  C35        4.0890   -1.1880   -6.8820 C.ar    0  LIG0        0.1816
      9  N21        3.0280   -0.4190   -6.6160 N.ar    0  LIG0       -0.2193
     10  C36        3.0430    0.6020   -7.5000 C.ar    0  LIG0        0.1518
     11  C43        6.0020   -1.1880   -8.5540 C.3     0  LIG0        0.2409
     12  O25        6.0970   -2.5930   -8.3500 O.3     0  LIG0       -0.3306
     13  C44        7.3220   -2.8740   -7.7120 C.3     0  LIG0        0.1801
     14  C40        7.1600   -4.0930   -6.8320 C.3     0  LIG0        0.1813
     15  O30        6.0830   -3.8880   -5.9670 O.3     0  LIG0       -0.3112
     16  P46        6.1390   -4.4340   -4.4490 P.3     0  LIG0        0.2189
     17  O28        6.7920   -5.7700   -4.4070 O.2     0  LIG0       -0.5170
     18  O18        4.7590   -4.3340   -3.9070 O.3     0  LIG0       -0.4371
     19  O32        7.0370   -3.2950   -3.7180 O.3     0  LIG0       -0.2700
     20  P47        8.5370   -3.2770   -3.1430 P.3     0  LIG0        0.2277
     21  O29        9.3150   -4.4650   -3.6150 O.2     0  LIG0       -0.5168
     22  O19        9.1300   -1.9580   -3.5150 O.3     0  LIG0       -0.4368
     23  O31        8.3490   -3.2940   -1.5480 O.3     0  LIG0       -0.2258
     24  P45        7.9460   -4.4900   -0.5200 P.3     0  LIG0        0.5373
     25  O26        8.0050   -5.7970   -1.2610 O.2     0  LIG0       -0.2221
     26  O27        8.9830   -4.4210    0.5840 O.3     0  LIG0       -0.1143
     27  O17        6.5880   -4.1570   -0.0240 O.3     0  LIG0       -0.1143
     28  C41        7.6790   -1.6100   -6.9510 C.3     0  LIG0        0.2161
     29  O23        9.0560   -1.5050   -6.6440 O.3     0  LIG0       -0.2175
     30  C42        7.2390   -0.5630   -7.9430 C.3     0  LIG0        0.2337
     31  O24        8.2350   -0.3920   -8.9570 O.3     0  LIG0       -0.2155
@<TRIPOS>BOND
     1     4     5   ar
     2     4     3   ar
     3     5     6   ar
     4    31    30    1
     5     3     2   ar
     6    11    12    1
     7    11    30    1
     8    11     7    1
     9    12    13    1
    10     6     7   ar
    11     6    10   ar
    12    30    28    1
    13     7     8   ar
    14     2    10   ar
    15     2     1    1
    16    13    28    1
    17    13    14    1
    18    10     9   ar
    19    28    29    1
    20     8     9   ar
    21    14    15    1
    22    15    16    1
    23    16    17    2
    24    16    18    1
    25    16    19    1
    26    19    20    1
    27    21    20    2
    28    22    20    1
    29    20    23    1
    30    23    24    1
    31    25    24    2
    32    24    27    1
    33    24    26    1
