PHOSPHATIDYLCHOLINE TRANSFER PROTEIN
     RDKit          3D

149148  0  0  0  0  0  0  0  0999 V2000
   -0.5709   -0.4349    3.8939 C   0  0  0  0  0  0  0  0  0  0  0  0
    0.8580   -0.7907    3.8422 C   0  0  1  0  0  0  0  0  0  0  0  0
    1.7156    0.4590    4.2466 C   0  0  0  0  0  0  0  0  0  0  0  0
   -3.6558    3.1088    2.8239 C   0  0  0  0  0  0  0  0  0  0  0  0
   -4.1994    4.2120    1.9850 C   0  0  0  0  0  0  0  0  0  0  0  0
   -2.4081    5.5508    1.1332 C   0  0  0  0  0  0  0  0  0  0  0  0
   -4.3484    5.1459   -0.1654 C   0  0  0  0  0  0  0  0  0  0  0  0
   -2.7584    3.4321    0.2350 C   0  0  0  0  0  0  0  0  0  0  0  0
    1.9264    2.6316    3.6540 C   0  0  0  0  0  0  0  0  0  0  0  0
    1.7230    3.7293    2.6481 C   0  0  0  0  0  0  0  0  0  0  0  0
    2.7470    4.7596    2.9487 C   0  0  0  0  0  0  0  0  0  0  0  0
    2.7835    6.0673    2.3429 C   0  0  0  0  0  0  0  0  0  0  0  0
    2.7598    6.3795    0.9190 C   0  0  0  0  0  0  0  0  0  0  0  0
    1.4217    6.0946    0.2471 C   0  0  0  0  0  0  0  0  0  0  0  0
    1.4851    6.5849   -1.1933 C   0  0  0  0  0  0  0  0  0  0  0  0
    2.3813    5.8394   -2.1050 C   0  0  0  0  0  0  0  0  0  0  0  0
    1.8322    4.4515   -2.4375 C   0  0  0  0  0  0  0  0  0  0  0  0
    2.7164    3.6502   -3.3273 C   0  0  0  0  0  0  0  0  0  0  0  0
    2.1174    2.3765   -3.8191 C   0  0  0  0  0  0  0  0  0  0  0  0
    1.6093    1.4318   -2.7694 C   0  0  0  0  0  0  0  0  0  0  0  0
    1.0625    0.1697   -3.4030 C   0  0  0  0  0  0  0  0  0  0  0  0
   -0.0351    0.3601   -4.3774 C   0  0  0  0  0  0  0  0  0  0  0  0
   -1.2972    0.9787   -3.9044 C   0  0  0  0  0  0  0  0  0  0  0  0
   -1.9756    0.2042   -2.8072 C   0  0  0  0  0  0  0  0  0  0  0  0
   -3.2892    0.8905   -2.4116 C   0  0  0  0  0  0  0  0  0  0  0  0
   -4.2270    0.9472   -3.6019 C   0  0  0  0  0  0  0  0  0  0  0  0
    2.0748   -2.7855    4.3149 C   0  0  1  0  0  0  0  0  0  0  0  0
    1.6197   -4.1869    4.0002 C   0  0  0  0  0  0  0  0  0  0  0  0
    0.7962   -4.2956    2.7233 C   0  0  0  0  0  0  0  0  0  0  0  0
    1.5916   -3.8369    1.5526 C   0  0  0  0  0  0  0  0  0  0  0  0
    0.8713   -3.9767    0.2575 C   0  0  0  0  0  0  0  0  0  0  0  0
   -0.4170   -3.2572    0.1169 C   0  0  0  0  0  0  0  0  0  0  0  0
   -0.8833   -3.4372   -1.3321 C   0  0  0  0  0  0  0  0  0  0  0  0
   -1.0185   -4.8567   -1.7395 C   0  0  0  0  0  0  0  0  0  0  0  0
   -1.5297   -4.9429   -3.1830 C   0  0  0  0  0  0  0  0  0  0  0  0
   -1.6788   -6.3352   -3.6297 C   0  0  0  0  0  0  0  0  0  0  0  0
   -0.5057   -7.2213   -3.7497 C   0  0  0  0  0  0  0  0  0  0  0  0
    0.5129   -6.9761   -4.7769 C   0  0  0  0  0  0  0  0  0  0  0  0
    1.3556   -5.8120   -4.9154 C   0  0  0  0  0  0  0  0  0  0  0  0
    2.3619   -5.4917   -3.8227 C   0  0  0  0  0  0  0  0  0  0  0  0
    3.1212   -4.2760   -4.3793 C   0  0  0  0  0  0  0  0  0  0  0  0
    4.2655   -3.8127   -3.5875 C   0  0  0  0  0  0  0  0  0  0  0  0
    4.0723   -3.3186   -2.2111 C   0  0  0  0  0  0  0  0  0  0  0  0
    3.1903   -2.0923   -2.1285 C   0  0  0  0  0  0  0  0  0  0  0  0
   -3.4443    4.5583    0.8269 N   0  0  2  0  0  0  0  0  0  0  0  0
    1.1786   -1.8464    4.5802 O   0  0  0  0  0  0  0  0  0  0  0  0
    1.1572    1.5249    3.5327 O   0  0  0  0  0  0  0  0  0  0  0  0
    1.2413    3.2783    4.8364 O   0  0  0  0  0  0  0  0  0  0  0  0
    3.0383   -2.8392    5.3125 O   0  0  0  0  0  0  0  0  0  0  0  0
   -3.4538   -0.2097    3.8834 O   0  0  0  0  0  0  0  0  0  0  0  0
   -1.7379    1.9442    4.1315 O   0  0  0  0  0  0  0  0  0  0  0  0
   -0.8229    0.6924    3.1621 O   0  0  0  0  0  0  0  0  0  0  0  0
   -3.5275    1.8925    2.2023 O   0  0  0  0  0  0  0  0  0  0  0  0
   -2.5061    0.9006    3.0539 P   0  0  0  0  0  0  0  0  0  0  0  0
   -0.8618   -0.2978    4.9760 H   0  0  0  0  0  0  0  0  0  0  0  0
   -1.1324   -1.3365    3.4809 H   0  0  0  0  0  0  0  0  0  0  0  0
    1.2164   -0.8602    2.7656 H   0  0  0  0  0  0  0  0  0  0  0  0
    1.6194    0.5515    5.3276 H   0  0  0  0  0  0  0  0  0  0  0  0
    2.7691    0.2794    3.9619 H   0  0  0  0  0  0  0  0  0  0  0  0
   -4.2953    2.9569    3.7424 H   0  0  0  0  0  0  0  0  0  0  0  0
   -2.6688    3.4364    3.2419 H   0  0  0  0  0  0  0  0  0  0  0  0
   -5.2263    3.9236    1.6391 H   0  0  0  0  0  0  0  0  0  0  0  0
   -4.3115    5.1064    2.6513 H   0  0  0  0  0  0  0  0  0  0  0  0
   -1.7058    5.1985    1.8972 H   0  0  0  0  0  0  0  0  0  0  0  0
   -1.8493    5.7879    0.1996 H   0  0  0  0  0  0  0  0  0  0  0  0
   -2.9222    6.4945    1.4232 H   0  0  0  0  0  0  0  0  0  0  0  0
   -4.1570    6.2346   -0.1924 H   0  0  0  0  0  0  0  0  0  0  0  0
   -5.3903    5.0023    0.1626 H   0  0  0  0  0  0  0  0  0  0  0  0
   -4.1735    4.6797   -1.1576 H   0  0  0  0  0  0  0  0  0  0  0  0
   -3.4775    2.6132    0.0604 H   0  0  0  0  0  0  0  0  0  0  0  0
   -1.9556    3.1066    0.9128 H   0  0  0  0  0  0  0  0  0  0  0  0
   -2.2548    3.7263   -0.7229 H   0  0  0  0  0  0  0  0  0  0  0  0
    2.9284    2.5667    4.0402 H   0  0  0  0  0  0  0  0  0  0  0  0
    1.9558    3.3330    1.6212 H   0  0  0  0  0  0  0  0  0  0  0  0
    0.7210    4.1658    2.6314 H   0  0  0  0  0  0  0  0  0  0  0  0
    2.6688    4.9267    4.0840 H   0  0  0  0  0  0  0  0  0  0  0  0
    3.7708    4.2284    2.9108 H   0  0  0  0  0  0  0  0  0  0  0  0
    2.0167    6.7347    2.9071 H   0  0  0  0  0  0  0  0  0  0  0  0
    3.7591    6.5650    2.7763 H   0  0  0  0  0  0  0  0  0  0  0  0
    3.5831    5.9182    0.3218 H   0  0  0  0  0  0  0  0  0  0  0  0
    2.9088    7.4871    0.7629 H   0  0  0  0  0  0  0  0  0  0  0  0
    1.1861    5.0349    0.2606 H   0  0  0  0  0  0  0  0  0  0  0  0
    0.6250    6.6443    0.7649 H   0  0  0  0  0  0  0  0  0  0  0  0
    1.7124    7.6743   -1.1533 H   0  0  0  0  0  0  0  0  0  0  0  0
    0.4179    6.5259   -1.5538 H   0  0  0  0  0  0  0  0  0  0  0  0
    3.4113    5.7617   -1.7056 H   0  0  0  0  0  0  0  0  0  0  0  0
    2.4550    6.3724   -3.0705 H   0  0  0  0  0  0  0  0  0  0  0  0
    1.7320    3.9136   -1.4730 H   0  0  0  0  0  0  0  0  0  0  0  0
    0.8125    4.5977   -2.8133 H   0  0  0  0  0  0  0  0  0  0  0  0
    2.9966    4.2741   -4.2016 H   0  0  0  0  0  0  0  0  0  0  0  0
    3.6559    3.3696   -2.7824 H   0  0  0  0  0  0  0  0  0  0  0  0
    1.3162    2.5740   -4.5963 H   0  0  0  0  0  0  0  0  0  0  0  0
    2.9054    1.7945   -4.3866 H   0  0  0  0  0  0  0  0  0  0  0  0
    0.8061    1.9774   -2.2146 H   0  0  0  0  0  0  0  0  0  0  0  0
    2.4370    1.1597   -2.0944 H   0  0  0  0  0  0  0  0  0  0  0  0
    1.9047   -0.3135   -3.9485 H   0  0  0  0  0  0  0  0  0  0  0  0
    0.6612   -0.4631   -2.5699 H   0  0  0  0  0  0  0  0  0  0  0  0
   -0.2954   -0.6713   -4.7626 H   0  0  0  0  0  0  0  0  0  0  0  0
    0.3313    0.8823   -5.3021 H   0  0  0  0  0  0  0  0  0  0  0  0
   -1.0895    2.0043   -3.5156 H   0  0  0  0  0  0  0  0  0  0  0  0
   -1.9922    1.1256   -4.7681 H   0  0  0  0  0  0  0  0  0  0  0  0
   -1.3223    0.1675   -1.9227 H   0  0  0  0  0  0  0  0  0  0  0  0
   -2.1849   -0.8237   -3.1883 H   0  0  0  0  0  0  0  0  0  0  0  0
   -3.0216    1.9367   -2.1855 H   0  0  0  0  0  0  0  0  0  0  0  0
   -3.7370    0.4127   -1.5340 H   0  0  0  0  0  0  0  0  0  0  0  0
   -3.8554    1.7611   -4.2735 H   0  0  0  0  0  0  0  0  0  0  0  0
   -4.1917   -0.0262   -4.1366 H   0  0  0  0  0  0  0  0  0  0  0  0
   -5.2170    1.2372   -3.2465 H   0  0  0  0  0  0  0  0  0  0  0  0
    2.6454   -2.3981    3.3889 H   0  0  0  0  0  0  0  0  0  0  0  0
    2.4993   -4.8392    3.8710 H   0  0  0  0  0  0  0  0  0  0  0  0
    1.0530   -4.5806    4.8735 H   0  0  0  0  0  0  0  0  0  0  0  0
    0.5023   -5.3457    2.5372 H   0  0  0  0  0  0  0  0  0  0  0  0
   -0.1331   -3.7071    2.7836 H   0  0  0  0  0  0  0  0  0  0  0  0
    1.9721   -2.7931    1.6045 H   0  0  0  0  0  0  0  0  0  0  0  0
    2.4692   -4.5577    1.4742 H   0  0  0  0  0  0  0  0  0  0  0  0
    1.5568   -3.5818   -0.5216 H   0  0  0  0  0  0  0  0  0  0  0  0
    0.7717   -5.0831    0.0909 H   0  0  0  0  0  0  0  0  0  0  0  0
   -0.2507   -2.1683    0.2277 H   0  0  0  0  0  0  0  0  0  0  0  0
   -1.2393   -3.6135    0.7443 H   0  0  0  0  0  0  0  0  0  0  0  0
   -0.2326   -2.8289   -1.9947 H   0  0  0  0  0  0  0  0  0  0  0  0
   -1.9119   -2.9712   -1.4212 H   0  0  0  0  0  0  0  0  0  0  0  0
   -0.1388   -5.4880   -1.6447 H   0  0  0  0  0  0  0  0  0  0  0  0
   -1.8223   -5.3224   -1.0901 H   0  0  0  0  0  0  0  0  0  0  0  0
   -2.5766   -4.4971   -3.1747 H   0  0  0  0  0  0  0  0  0  0  0  0
   -0.9583   -4.2505   -3.8153 H   0  0  0  0  0  0  0  0  0  0  0  0
   -2.2941   -6.3123   -4.5816 H   0  0  0  0  0  0  0  0  0  0  0  0
   -2.4077   -6.8351   -2.9080 H   0  0  0  0  0  0  0  0  0  0  0  0
    0.0378   -7.2897   -2.7619 H   0  0  0  0  0  0  0  0  0  0  0  0
   -0.8591   -8.3027   -3.8783 H   0  0  0  0  0  0  0  0  0  0  0  0
   -0.0445   -7.1232   -5.7920 H   0  0  0  0  0  0  0  0  0  0  0  0
    1.1534   -7.9435   -4.8032 H   0  0  0  0  0  0  0  0  0  0  0  0
    2.0180   -5.9700   -5.8381 H   0  0  0  0  0  0  0  0  0  0  0  0
    0.8368   -4.8502   -5.1341 H   0  0  0  0  0  0  0  0  0  0  0  0
    1.8927   -5.2045   -2.8679 H   0  0  0  0  0  0  0  0  0  0  0  0
    3.0590   -6.3225   -3.6263 H   0  0  0  0  0  0  0  0  0  0  0  0
    2.3356   -3.4893   -4.4676 H   0  0  0  0  0  0  0  0  0  0  0  0
    3.4633   -4.5924   -5.3876 H   0  0  0  0  0  0  0  0  0  0  0  0
    5.1215   -4.5343   -3.5653 H   0  0  0  0  0  0  0  0  0  0  0  0
    4.7163   -2.9339   -4.1756 H   0  0  0  0  0  0  0  0  0  0  0  0
    5.0869   -2.9653   -1.8500 H   0  0  0  0  0  0  0  0  0  0  0  0
    3.7438   -4.0593   -1.4842 H   0  0  0  0  0  0  0  0  0  0  0  0
    2.1596   -2.3154   -2.4361 H   0  0  0  0  0  0  0  0  0  0  0  0
    3.6168   -1.2460   -2.6597 H   0  0  0  0  0  0  0  0  0  0  0  0
    3.1351   -1.8038   -1.0398 H   0  0  0  0  0  0  0  0  0  0  0  0
    1.2664    2.5591    5.5229 H   0  0  0  0  0  0  0  0  0  0  0  0
    2.9525   -3.5917    5.9217 H   0  0  0  0  0  0  0  0  0  0  0  0
   -3.2640   -0.2541    4.8575 H   0  0  0  0  0  0  0  0  0  0  0  0
   -2.3940    2.1565    4.8627 H   0  0  0  0  0  0  0  0  0  0  0  0
   -3.6099    0.3222    2.3908 H   0  0  0  0  0  0  0  0  0  0  0  0
  1  2  1  0
  1 52  1  0
  2  3  1  0
  2 46  1  0
  3 47  1  0
  4  5  1  0
  4 53  1  0
 45  5  1  1
  6 45  1  0
  7 45  1  0
  8 45  1  0
  9 10  1  0
  9 47  1  0
  9 48  1  0
 10 11  1  0
 11 12  1  0
 12 13  1  0
 13 14  1  0
 14 15  1  0
 15 16  1  0
 16 17  1  0
 17 18  1  0
 18 19  1  0
 19 20  1  0
 20 21  1  0
 21 22  1  0
 22 23  1  0
 23 24  1  0
 24 25  1  0
 25 26  1  0
 27 28  1  0
 27 46  1  0
 27 49  1  0
 28 29  1  0
 29 30  1  0
 30 31  1  0
 31 32  1  0
 32 33  1  0
 33 34  1  0
 34 35  1  0
 35 36  1  0
 36 37  1  0
 37 38  1  0
 38 39  1  0
 39 40  1  0
 40 41  1  0
 41 42  1  0
 42 43  1  0
 43 44  1  0
 50 54  1  0
 51 54  1  0
 52 54  1  0
 53 54  1  0
  1 55  1  0
  1 56  1  0
  2 57  1  6
  3 58  1  0
  3 59  1  0
  4 60  1  0
  4 61  1  0
  5 62  1  0
  5 63  1  0
  6 64  1  0
  6 65  1  0
  6 66  1  0
  7 67  1  0
  7 68  1  0
  7 69  1  0
  8 70  1  0
  8 71  1  0
  8 72  1  0
  9 73  1  0
 10 74  1  0
 10 75  1  0
 11 76  1  0
 11 77  1  0
 12 78  1  0
 12 79  1  0
 13 80  1  0
 13 81  1  0
 14 82  1  0
 14 83  1  0
 15 84  1  0
 15 85  1  0
 16 86  1  0
 16 87  1  0
 17 88  1  0
 17 89  1  0
 18 90  1  0
 18 91  1  0
 19 92  1  0
 19 93  1  0
 20 94  1  0
 20 95  1  0
 21 96  1  0
 21 97  1  0
 22 98  1  0
 22 99  1  0
 23100  1  0
 23101  1  0
 24102  1  0
 24103  1  0
 25104  1  0
 25105  1  0
 26106  1  0
 26107  1  0
 26108  1  0
 27109  1  6
 28110  1  0
 28111  1  0
 29112  1  0
 29113  1  0
 30114  1  0
 30115  1  0
 31116  1  0
 31117  1  0
 32118  1  0
 32119  1  0
 33120  1  0
 33121  1  0
 34122  1  0
 34123  1  0
 35124  1  0
 35125  1  0
 36126  1  0
 36127  1  0
 37128  1  0
 37129  1  0
 38130  1  0
 38131  1  0
 39132  1  0
 39133  1  0
 40134  1  0
 40135  1  0
 41136  1  0
 41137  1  0
 42138  1  0
 42139  1  0
 43140  1  0
 43141  1  0
 44142  1  0
 44143  1  0
 44144  1  0
 48145  1  0
 49146  1  0
 50147  1  0
 51148  1  0
 54149  1  0
M  CHG  1  45   1
M  END
$$$$
PHOSPHATIDYLCHOLINE TRANSFER PROTEIN
     RDKit          3D

149148  0  0  0  0  0  0  0  0999 V2000
   -2.2345   -1.9123    3.5267 C   0  0  0  0  0  0  0  0  0  0  0  0
   -1.0356   -1.5945    4.3985 C   0  0  1  0  0  0  0  0  0  0  0  0
    0.2601   -1.8737    3.6143 C   0  0  0  0  0  0  0  0  0  0  0  0
   -3.8194   -0.2645   -0.8346 C   0  0  0  0  0  0  0  0  0  0  0  0
   -4.7965    0.2654   -1.8227 C   0  0  0  0  0  0  0  0  0  0  0  0
   -7.0853    0.1179   -2.3952 C   0  0  0  0  0  0  0  0  0  0  0  0
   -6.1202   -1.7082   -1.3284 C   0  0  0  0  0  0  0  0  0  0  0  0
   -5.5316   -1.1487   -3.5673 C   0  0  0  0  0  0  0  0  0  0  0  0
    1.4717   -1.2325    1.7605 C   0  0  0  0  0  0  0  0  0  0  0  0
    1.4433   -2.1540    0.5845 C   0  0  0  0  0  0  0  0  0  0  0  0
    2.7501   -2.2515   -0.1686 C   0  0  0  0  0  0  0  0  0  0  0  0
    3.1078   -0.9577   -0.8361 C   0  0  0  0  0  0  0  0  0  0  0  0
    2.0653   -0.5916   -1.8664 C   0  0  0  0  0  0  0  0  0  0  0  0
    2.0217   -1.6408   -2.9554 C   0  0  0  0  0  0  0  0  0  0  0  0
    3.2514   -1.6771   -3.7894 C   0  0  0  0  0  0  0  0  0  0  0  0
    3.3561   -2.7496   -4.8014 C   0  0  0  0  0  0  0  0  0  0  0  0
    2.2273   -2.8682   -5.8013 C   0  0  0  0  0  0  0  0  0  0  0  0
    2.6484   -3.9911   -6.7148 C   0  0  0  0  0  0  0  0  0  0  0  0
    1.7187   -4.4421   -7.7492 C   0  0  0  0  0  0  0  0  0  0  0  0
    1.1964   -3.5189   -8.7769 C   0  0  0  0  0  0  0  0  0  0  0  0
    0.2468   -4.3226   -9.6939 C   0  0  0  0  0  0  0  0  0  0  0  0
    0.9456   -5.4257  -10.4332 C   0  0  0  0  0  0  0  0  0  0  0  0
    0.0138   -6.2458  -11.3144 C   0  0  0  0  0  0  0  0  0  0  0  0
   -1.0881   -6.9227  -10.5481 C   0  0  0  0  0  0  0  0  0  0  0  0
   -1.9723   -7.7427  -11.4831 C   0  0  0  0  0  0  0  0  0  0  0  0
   -2.6316   -6.8808  -12.5351 C   0  0  0  0  0  0  0  0  0  0  0  0
   -1.0267   -0.1187    6.0790 C   0  0  1  0  0  0  0  0  0  0  0  0
   -1.1909    1.1695    6.7363 C   0  0  0  0  0  0  0  0  0  0  0  0
   -2.3461    2.0565    6.4152 C   0  0  0  0  0  0  0  0  0  0  0  0
   -2.2512    2.4618    4.9633 C   0  0  0  0  0  0  0  0  0  0  0  0
   -3.2789    3.4922    4.5440 C   0  0  0  0  0  0  0  0  0  0  0  0
   -3.1013    4.7535    5.3970 C   0  0  0  0  0  0  0  0  0  0  0  0
   -1.6695    5.2503    5.2934 C   0  0  0  0  0  0  0  0  0  0  0  0
   -1.2567    5.6201    3.9156 C   0  0  0  0  0  0  0  0  0  0  0  0
    0.2197    6.0524    3.8329 C   0  0  0  0  0  0  0  0  0  0  0  0
    1.0404    4.8643    4.2289 C   0  0  0  0  0  0  0  0  0  0  0  0
    2.5488    5.1127    4.1872 C   0  0  0  0  0  0  0  0  0  0  0  0
    3.2281    3.8072    4.5608 C   0  0  0  0  0  0  0  0  0  0  0  0
    4.6904    3.8403    4.5494 C   0  0  0  0  0  0  0  0  0  0  0  0
    5.4314    4.7238    5.4675 C   0  0  0  0  0  0  0  0  0  0  0  0
    5.1810    4.4643    6.9291 C   0  0  0  0  0  0  0  0  0  0  0  0
    5.5223    3.0422    7.3071 C   0  0  0  0  0  0  0  0  0  0  0  0
    6.9365    2.6352    7.0565 C   0  0  0  0  0  0  0  0  0  0  0  0
    7.0233    1.1623    7.5057 C   0  0  0  0  0  0  0  0  0  0  0  0
   -5.8239   -0.6203   -2.2358 N   0  0  2  0  0  0  0  0  0  0  0  0
   -0.9651   -0.2042    4.7077 O   0  0  0  0  0  0  0  0  0  0  0  0
    0.2274   -1.1501    2.4134 O   0  0  0  0  0  0  0  0  0  0  0  0
    1.8741    0.0278    1.4361 O   0  0  0  0  0  0  0  0  0  0  0  0
    0.4651   -0.3538    6.3417 O   0  0  0  0  0  0  0  0  0  0  0  0
   -3.8713   -3.1092    1.5054 O   0  0  0  0  0  0  0  0  0  0  0  0
   -2.6962   -2.4224    0.0983 O   0  0  0  0  0  0  0  0  0  0  0  0
   -2.0854   -1.1968    2.3455 O   0  0  0  0  0  0  0  0  0  0  0  0
   -4.4667   -0.6443    0.3502 O   0  0  0  0  0  0  0  0  0  0  0  0
   -3.3974   -1.4946    1.3100 P   0  0  0  0  0  0  0  0  0  0  0  0
   -3.1666   -1.5352    4.0112 H   0  0  0  0  0  0  0  0  0  0  0  0
   -2.2918   -3.0133    3.3589 H   0  0  0  0  0  0  0  0  0  0  0  0
   -1.0519   -2.2214    5.2731 H   0  0  0  0  0  0  0  0  0  0  0  0
    1.1603   -1.6210    4.1739 H   0  0  0  0  0  0  0  0  0  0  0  0
    0.2874   -2.9511    3.3361 H   0  0  0  0  0  0  0  0  0  0  0  0
   -3.2188   -1.1218   -1.2372 H   0  0  0  0  0  0  0  0  0  0  0  0
   -3.1171    0.5741   -0.5881 H   0  0  0  0  0  0  0  0  0  0  0  0
   -4.2714    0.6212   -2.7451 H   0  0  0  0  0  0  0  0  0  0  0  0
   -5.2942    1.1980   -1.4294 H   0  0  0  0  0  0  0  0  0  0  0  0
   -7.4207    0.5087   -1.4358 H   0  0  0  0  0  0  0  0  0  0  0  0
   -6.9425    0.9601   -3.1217 H   0  0  0  0  0  0  0  0  0  0  0  0
   -7.8067   -0.6102   -2.7856 H   0  0  0  0  0  0  0  0  0  0  0  0
   -6.5677   -1.2938   -0.3942 H   0  0  0  0  0  0  0  0  0  0  0  0
   -6.8706   -2.3796   -1.8314 H   0  0  0  0  0  0  0  0  0  0  0  0
   -5.2793   -2.3380   -1.0542 H   0  0  0  0  0  0  0  0  0  0  0  0
   -5.0133   -0.3335   -4.1071 H   0  0  0  0  0  0  0  0  0  0  0  0
   -4.9074   -2.0693   -3.5070 H   0  0  0  0  0  0  0  0  0  0  0  0
   -6.4998   -1.3523   -4.0848 H   0  0  0  0  0  0  0  0  0  0  0  0
    2.2104   -1.7246    2.5026 H   0  0  0  0  0  0  0  0  0  0  0  0
    1.2847   -3.1936    1.0166 H   0  0  0  0  0  0  0  0  0  0  0  0
    0.6061   -1.9126   -0.0655 H   0  0  0  0  0  0  0  0  0  0  0  0
    2.7366   -3.0723   -0.9039 H   0  0  0  0  0  0  0  0  0  0  0  0
    3.5799   -2.5447    0.5510 H   0  0  0  0  0  0  0  0  0  0  0  0
    3.3069   -0.1213   -0.1559 H   0  0  0  0  0  0  0  0  0  0  0  0
    4.0662   -1.1702   -1.3891 H   0  0  0  0  0  0  0  0  0  0  0  0
    2.3526    0.4106   -2.3212 H   0  0  0  0  0  0  0  0  0  0  0  0
    1.0931   -0.5118   -1.3594 H   0  0  0  0  0  0  0  0  0  0  0  0
    1.1464   -1.2852   -3.6139 H   0  0  0  0  0  0  0  0  0  0  0  0
    1.7998   -2.6217   -2.5453 H   0  0  0  0  0  0  0  0  0  0  0  0
    4.1590   -1.7194   -3.1358 H   0  0  0  0  0  0  0  0  0  0  0  0
    3.3625   -0.6871   -4.3200 H   0  0  0  0  0  0  0  0  0  0  0  0
    3.5225   -3.7219   -4.2547 H   0  0  0  0  0  0  0  0  0  0  0  0
    4.3356   -2.6062   -5.3555 H   0  0  0  0  0  0  0  0  0  0  0  0
    2.2006   -1.9089   -6.3454 H   0  0  0  0  0  0  0  0  0  0  0  0
    1.2857   -3.0267   -5.2847 H   0  0  0  0  0  0  0  0  0  0  0  0
    2.8708   -4.8825   -6.0537 H   0  0  0  0  0  0  0  0  0  0  0  0
    3.6672   -3.7279   -7.1250 H   0  0  0  0  0  0  0  0  0  0  0  0
    2.2966   -5.2575   -8.3173 H   0  0  0  0  0  0  0  0  0  0  0  0
    0.8848   -5.0760   -7.2941 H   0  0  0  0  0  0  0  0  0  0  0  0
    2.0011   -3.1857   -9.4928 H   0  0  0  0  0  0  0  0  0  0  0  0
    0.7153   -2.6141   -8.4177 H   0  0  0  0  0  0  0  0  0  0  0  0
   -0.3249   -3.6682  -10.3552 H   0  0  0  0  0  0  0  0  0  0  0  0
   -0.5157   -4.8362   -9.0366 H   0  0  0  0  0  0  0  0  0  0  0  0
    1.6983   -4.9483  -11.1331 H   0  0  0  0  0  0  0  0  0  0  0  0
    1.5003   -6.1364   -9.8159 H   0  0  0  0  0  0  0  0  0  0  0  0
   -0.3738   -5.6286  -12.1326 H   0  0  0  0  0  0  0  0  0  0  0  0
    0.6075   -7.0570  -11.8210 H   0  0  0  0  0  0  0  0  0  0  0  0
   -0.6837   -7.5757   -9.7686 H   0  0  0  0  0  0  0  0  0  0  0  0
   -1.7355   -6.1535  -10.0451 H   0  0  0  0  0  0  0  0  0  0  0  0
   -2.7043   -8.3087  -10.8880 H   0  0  0  0  0  0  0  0  0  0  0  0
   -1.3571   -8.5003  -12.0278 H   0  0  0  0  0  0  0  0  0  0  0  0
   -3.7570   -6.9972  -12.5016 H   0  0  0  0  0  0  0  0  0  0  0  0
   -2.3275   -7.1604  -13.5587 H   0  0  0  0  0  0  0  0  0  0  0  0
   -2.3839   -5.8135  -12.3140 H   0  0  0  0  0  0  0  0  0  0  0  0
   -1.3367   -1.0491    6.5708 H   0  0  0  0  0  0  0  0  0  0  0  0
   -1.1636    1.0257    7.8636 H   0  0  0  0  0  0  0  0  0  0  0  0
   -0.2753    1.8478    6.5882 H   0  0  0  0  0  0  0  0  0  0  0  0
   -3.3350    1.5758    6.6443 H   0  0  0  0  0  0  0  0  0  0  0  0
   -2.2884    2.9517    7.0621 H   0  0  0  0  0  0  0  0  0  0  0  0
   -1.2632    2.8616    4.7427 H   0  0  0  0  0  0  0  0  0  0  0  0
   -2.4819    1.5440    4.3668 H   0  0  0  0  0  0  0  0  0  0  0  0
   -3.1590    3.7735    3.4937 H   0  0  0  0  0  0  0  0  0  0  0  0
   -4.3229    3.1653    4.6968 H   0  0  0  0  0  0  0  0  0  0  0  0
   -3.8312    5.4995    5.0030 H   0  0  0  0  0  0  0  0  0  0  0  0
   -3.3980    4.5123    6.4232 H   0  0  0  0  0  0  0  0  0  0  0  0
   -1.0318    4.5603    5.8389 H   0  0  0  0  0  0  0  0  0  0  0  0
   -1.6520    6.2333    5.8790 H   0  0  0  0  0  0  0  0  0  0  0  0
   -1.9070    6.4597    3.5607 H   0  0  0  0  0  0  0  0  0  0  0  0
   -1.4353    4.7735    3.2244 H   0  0  0  0  0  0  0  0  0  0  0  0
    0.4553    6.3483    2.8009 H   0  0  0  0  0  0  0  0  0  0  0  0
    0.4332    6.8608    4.5460 H   0  0  0  0  0  0  0  0  0  0  0  0
    0.7762    4.0489    3.5174 H   0  0  0  0  0  0  0  0  0  0  0  0
    0.8298    4.6071    5.2755 H   0  0  0  0  0  0  0  0  0  0  0  0
    2.7643    5.9218    4.8766 H   0  0  0  0  0  0  0  0  0  0  0  0
    2.8026    5.3546    3.1316 H   0  0  0  0  0  0  0  0  0  0  0  0
    2.7712    3.3677    5.4766 H   0  0  0  0  0  0  0  0  0  0  0  0
    2.8959    3.0912    3.7534 H   0  0  0  0  0  0  0  0  0  0  0  0
    5.0001    4.0541    3.4705 H   0  0  0  0  0  0  0  0  0  0  0  0
    5.1270    2.7998    4.6886 H   0  0  0  0  0  0  0  0  0  0  0  0
    5.2444    5.7838    5.2111 H   0  0  0  0  0  0  0  0  0  0  0  0
    6.5493    4.5887    5.3337 H   0  0  0  0  0  0  0  0  0  0  0  0
    5.8676    5.1300    7.4991 H   0  0  0  0  0  0  0  0  0  0  0  0
    4.1727    4.6833    7.2671 H   0  0  0  0  0  0  0  0  0  0  0  0
    4.8675    2.3255    6.7271 H   0  0  0  0  0  0  0  0  0  0  0  0
    5.3096    2.8179    8.3791 H   0  0  0  0  0  0  0  0  0  0  0  0
    7.2219    2.6266    5.9794 H   0  0  0  0  0  0  0  0  0  0  0  0
    7.6925    3.1483    7.6941 H   0  0  0  0  0  0  0  0  0  0  0  0
    8.0086    0.7236    7.2483 H   0  0  0  0  0  0  0  0  0  0  0  0
    6.8282    1.1358    8.6177 H   0  0  0  0  0  0  0  0  0  0  0  0
    6.1848    0.6215    7.0449 H   0  0  0  0  0  0  0  0  0  0  0  0
    1.2863    0.7308    1.7889 H   0  0  0  0  0  0  0  0  0  0  0  0
    0.5188   -0.2849    7.3166 H   0  0  0  0  0  0  0  0  0  0  0  0
   -4.0865   -3.1664    2.4976 H   0  0  0  0  0  0  0  0  0  0  0  0
   -1.7186   -2.5585    0.2401 H   0  0  0  0  0  0  0  0  0  0  0  0
   -2.7677   -0.2747    1.4281 H   0  0  0  0  0  0  0  0  0  0  0  0
  1  2  1  0
  1 52  1  0
  2  3  1  0
  2 46  1  0
  3 47  1  0
  4  5  1  0
  4 53  1  0
 45  5  1  1
  6 45  1  0
  7 45  1  0
  8 45  1  0
  9 10  1  0
  9 47  1  0
  9 48  1  0
 10 11  1  0
 11 12  1  0
 12 13  1  0
 13 14  1  0
 14 15  1  0
 15 16  1  0
 16 17  1  0
 17 18  1  0
 18 19  1  0
 19 20  1  0
 20 21  1  0
 21 22  1  0
 22 23  1  0
 23 24  1  0
 24 25  1  0
 25 26  1  0
 27 28  1  0
 27 46  1  0
 27 49  1  0
 28 29  1  0
 29 30  1  0
 30 31  1  0
 31 32  1  0
 32 33  1  0
 33 34  1  0
 34 35  1  0
 35 36  1  0
 36 37  1  0
 37 38  1  0
 38 39  1  0
 39 40  1  0
 40 41  1  0
 41 42  1  0
 42 43  1  0
 43 44  1  0
 50 54  1  0
 51 54  1  0
 52 54  1  0
 53 54  1  0
  1 55  1  0
  1 56  1  0
  2 57  1  1
  3 58  1  0
  3 59  1  0
  4 60  1  0
  4 61  1  0
  5 62  1  0
  5 63  1  0
  6 64  1  0
  6 65  1  0
  6 66  1  0
  7 67  1  0
  7 68  1  0
  7 69  1  0
  8 70  1  0
  8 71  1  0
  8 72  1  0
  9 73  1  0
 10 74  1  0
 10 75  1  0
 11 76  1  0
 11 77  1  0
 12 78  1  0
 12 79  1  0
 13 80  1  0
 13 81  1  0
 14 82  1  0
 14 83  1  0
 15 84  1  0
 15 85  1  0
 16 86  1  0
 16 87  1  0
 17 88  1  0
 17 89  1  0
 18 90  1  0
 18 91  1  0
 19 92  1  0
 19 93  1  0
 20 94  1  0
 20 95  1  0
 21 96  1  0
 21 97  1  0
 22 98  1  0
 22 99  1  0
 23100  1  0
 23101  1  0
 24102  1  0
 24103  1  0
 25104  1  0
 25105  1  0
 26106  1  0
 26107  1  0
 26108  1  0
 27109  1  1
 28110  1  0
 28111  1  0
 29112  1  0
 29113  1  0
 30114  1  0
 30115  1  0
 31116  1  0
 31117  1  0
 32118  1  0
 32119  1  0
 33120  1  0
 33121  1  0
 34122  1  0
 34123  1  0
 35124  1  0
 35125  1  0
 36126  1  0
 36127  1  0
 37128  1  0
 37129  1  0
 38130  1  0
 38131  1  0
 39132  1  0
 39133  1  0
 40134  1  0
 40135  1  0
 41136  1  0
 41137  1  0
 42138  1  0
 42139  1  0
 43140  1  0
 43141  1  0
 44142  1  0
 44143  1  0
 44144  1  0
 48145  1  0
 49146  1  0
 50147  1  0
 51148  1  0
 54149  1  0
M  CHG  1  45   1
M  END
$$$$
PHOSPHATIDYLCHOLINE TRANSFER PROTEIN
     RDKit          3D

149148  0  0  0  0  0  0  0  0999 V2000
    2.0948    0.6906    0.4762 C   0  0  0  0  0  0  0  0  0  0  0  0
    3.4619    1.3006    0.5754 C   0  0  1  0  0  0  0  0  0  0  0  0
    3.5783    2.7558    0.7545 C   0  0  0  0  0  0  0  0  0  0  0  0
   -0.4072    0.4991   -2.4384 C   0  0  0  0  0  0  0  0  0  0  0  0
   -1.8048    0.7062   -2.9082 C   0  0  0  0  0  0  0  0  0  0  0  0
   -1.6729   -1.0464   -4.5196 C   0  0  0  0  0  0  0  0  0  0  0  0
   -3.7803   -0.1388   -3.7744 C   0  0  0  0  0  0  0  0  0  0  0  0
   -2.5249   -1.4710   -2.3096 C   0  0  0  0  0  0  0  0  0  0  0  0
    1.8399    3.3467    2.2278 C   0  0  0  0  0  0  0  0  0  0  0  0
    1.4057    4.6966    2.7725 C   0  0  0  0  0  0  0  0  0  0  0  0
    1.6363    5.8609    1.9275 C   0  0  0  0  0  0  0  0  0  0  0  0
    1.1225    6.0501    0.5771 C   0  0  0  0  0  0  0  0  0  0  0  0
   -0.3102    6.0795    0.2512 C   0  0  0  0  0  0  0  0  0  0  0  0
   -0.9914    4.7350    0.4882 C   0  0  0  0  0  0  0  0  0  0  0  0
   -2.4488    4.8444    0.0956 C   0  0  0  0  0  0  0  0  0  0  0  0
   -3.2728    3.6567    0.1254 C   0  0  0  0  0  0  0  0  0  0  0  0
   -3.5850    2.8442    1.3113 C   0  0  0  0  0  0  0  0  0  0  0  0
   -2.5283    2.1399    2.0504 C   0  0  0  0  0  0  0  0  0  0  0  0
   -2.9215    1.2882    3.2024 C   0  0  0  0  0  0  0  0  0  0  0  0
   -3.5020    1.8052    4.4364 C   0  0  0  0  0  0  0  0  0  0  0  0
   -4.7560    2.5725    4.4951 C   0  0  0  0  0  0  0  0  0  0  0  0
   -5.1674    2.8728    5.9385 C   0  0  0  0  0  0  0  0  0  0  0  0
   -4.1935    3.6487    6.7073 C   0  0  0  0  0  0  0  0  0  0  0  0
   -3.8286    4.9925    6.2046 C   0  0  0  0  0  0  0  0  0  0  0  0
   -2.7961    5.6379    7.1450 C   0  0  0  0  0  0  0  0  0  0  0  0
   -2.3865    7.0122    6.6666 C   0  0  0  0  0  0  0  0  0  0  0  0
    5.0102   -0.3724    0.8161 C   0  0  1  0  0  0  0  0  0  0  0  0
    5.2740   -1.5278    1.7101 C   0  0  0  0  0  0  0  0  0  0  0  0
    6.0545   -2.6582    1.0452 C   0  0  0  0  0  0  0  0  0  0  0  0
    5.1620   -3.2758   -0.0478 C   0  0  0  0  0  0  0  0  0  0  0  0
    5.8766   -4.3772   -0.7436 C   0  0  0  0  0  0  0  0  0  0  0  0
    4.9839   -5.0902   -1.8081 C   0  0  0  0  0  0  0  0  0  0  0  0
    3.8659   -5.6783   -1.0582 C   0  0  0  0  0  0  0  0  0  0  0  0
    2.8314   -6.5194   -1.6581 C   0  0  0  0  0  0  0  0  0  0  0  0
    1.9107   -5.9881   -2.6927 C   0  0  0  0  0  0  0  0  0  0  0  0
    2.4251   -5.5556   -4.0060 C   0  0  0  0  0  0  0  0  0  0  0  0
    1.4325   -5.0363   -4.9844 C   0  0  0  0  0  0  0  0  0  0  0  0
    0.3677   -5.8602   -5.5501 C   0  0  0  0  0  0  0  0  0  0  0  0
   -0.6521   -6.5118   -4.7022 C   0  0  0  0  0  0  0  0  0  0  0  0
   -1.4230   -5.5521   -3.8165 C   0  0  0  0  0  0  0  0  0  0  0  0
   -2.4466   -6.2569   -2.9581 C   0  0  0  0  0  0  0  0  0  0  0  0
   -3.1578   -5.2533   -2.0671 C   0  0  0  0  0  0  0  0  0  0  0  0
   -4.1903   -5.9563   -1.2052 C   0  0  0  0  0  0  0  0  0  0  0  0
   -4.8584   -4.9004   -0.3251 C   0  0  0  0  0  0  0  0  0  0  0  0
   -2.4153   -0.5117   -3.4064 N   0  0  2  0  0  0  0  0  0  0  0  0
    4.2181    0.5740    1.5097 O   0  0  0  0  0  0  0  0  0  0  0  0
    3.1724    3.3182    1.9229 O   0  0  0  0  0  0  0  0  0  0  0  0
    1.7373    2.4552    3.3708 O   0  0  0  0  0  0  0  0  0  0  0  0
    6.2897    0.3434    0.6558 O   0  0  0  0  0  0  0  0  0  0  0  0
    1.4545   -1.6907   -2.8227 O   0  0  0  0  0  0  0  0  0  0  0  0
    1.6029   -2.0792   -0.2693 O   0  0  0  0  0  0  0  0  0  0  0  0
    2.2307   -0.6570    0.0299 O   0  0  0  0  0  0  0  0  0  0  0  0
   -0.2801   -0.4221   -1.3918 O   0  0  0  0  0  0  0  0  0  0  0  0
    1.3652   -0.8425   -1.3906 P   0  0  0  0  0  0  0  0  0  0  0  0
    1.4465    1.1999   -0.2449 H   0  0  0  0  0  0  0  0  0  0  0  0
    1.5610    0.6642    1.4599 H   0  0  0  0  0  0  0  0  0  0  0  0
    3.9406    0.9625   -0.4267 H   0  0  0  0  0  0  0  0  0  0  0  0
    3.1601    3.3310   -0.1346 H   0  0  0  0  0  0  0  0  0  0  0  0
    4.6894    3.0000    0.6632 H   0  0  0  0  0  0  0  0  0  0  0  0
    0.1073    1.4289   -2.1821 H   0  0  0  0  0  0  0  0  0  0  0  0
    0.1841    0.0534   -3.2801 H   0  0  0  0  0  0  0  0  0  0  0  0
   -1.8779    1.4615   -3.7136 H   0  0  0  0  0  0  0  0  0  0  0  0
   -2.4389    1.0604   -2.0753 H   0  0  0  0  0  0  0  0  0  0  0  0
   -1.1076   -0.1983   -4.9894 H   0  0  0  0  0  0  0  0  0  0  0  0
   -0.9560   -1.8470   -4.2045 H   0  0  0  0  0  0  0  0  0  0  0  0
   -2.3515   -1.5211   -5.2702 H   0  0  0  0  0  0  0  0  0  0  0  0
   -4.0732   -0.6594   -4.7008 H   0  0  0  0  0  0  0  0  0  0  0  0
   -3.8612    0.9493   -3.9620 H   0  0  0  0  0  0  0  0  0  0  0  0
   -4.5113   -0.4515   -2.9849 H   0  0  0  0  0  0  0  0  0  0  0  0
   -1.5943   -2.1019   -2.3289 H   0  0  0  0  0  0  0  0  0  0  0  0
   -3.3982   -2.1177   -2.4168 H   0  0  0  0  0  0  0  0  0  0  0  0
   -2.5575   -0.9686   -1.3100 H   0  0  0  0  0  0  0  0  0  0  0  0
    1.1826    2.9850    1.4609 H   0  0  0  0  0  0  0  0  0  0  0  0
    2.1472    4.8225    3.6760 H   0  0  0  0  0  0  0  0  0  0  0  0
    0.4562    4.6109    3.3285 H   0  0  0  0  0  0  0  0  0  0  0  0
    1.4190    6.8024    2.5791 H   0  0  0  0  0  0  0  0  0  0  0  0
    2.7954    5.9788    1.8803 H   0  0  0  0  0  0  0  0  0  0  0  0
    1.6244    5.3529   -0.1782 H   0  0  0  0  0  0  0  0  0  0  0  0
    1.5330    7.0745    0.2158 H   0  0  0  0  0  0  0  0  0  0  0  0
   -0.4944    6.4512   -0.7796 H   0  0  0  0  0  0  0  0  0  0  0  0
   -0.8819    6.8091    0.9030 H   0  0  0  0  0  0  0  0  0  0  0  0
   -0.8563    4.5479    1.5501 H   0  0  0  0  0  0  0  0  0  0  0  0
   -0.5113    4.0208   -0.2029 H   0  0  0  0  0  0  0  0  0  0  0  0
   -2.9060    5.7383    0.6278 H   0  0  0  0  0  0  0  0  0  0  0  0
   -2.4060    5.2372   -0.9769 H   0  0  0  0  0  0  0  0  0  0  0  0
   -2.9097    2.9355   -0.6934 H   0  0  0  0  0  0  0  0  0  0  0  0
   -4.3050    3.9188   -0.3266 H   0  0  0  0  0  0  0  0  0  0  0  0
   -4.2463    1.9821    0.8870 H   0  0  0  0  0  0  0  0  0  0  0  0
   -4.3540    3.3770    1.9258 H   0  0  0  0  0  0  0  0  0  0  0  0
   -1.6729    2.7680    2.4104 H   0  0  0  0  0  0  0  0  0  0  0  0
   -1.9859    1.4257    1.3301 H   0  0  0  0  0  0  0  0  0  0  0  0
   -1.9731    0.7116    3.5323 H   0  0  0  0  0  0  0  0  0  0  0  0
   -3.5577    0.4173    2.8225 H   0  0  0  0  0  0  0  0  0  0  0  0
   -3.6720    0.9069    5.1429 H   0  0  0  0  0  0  0  0  0  0  0  0
   -2.6513    2.3232    4.9901 H   0  0  0  0  0  0  0  0  0  0  0  0
   -4.7484    3.5578    3.9472 H   0  0  0  0  0  0  0  0  0  0  0  0
   -5.5646    1.9849    4.0474 H   0  0  0  0  0  0  0  0  0  0  0  0
   -6.1338    3.4176    5.8766 H   0  0  0  0  0  0  0  0  0  0  0  0
   -5.4250    1.8922    6.3825 H   0  0  0  0  0  0  0  0  0  0  0  0
   -4.5532    3.8063    7.7702 H   0  0  0  0  0  0  0  0  0  0  0  0
   -3.2586    3.0572    6.8313 H   0  0  0  0  0  0  0  0  0  0  0  0
   -3.3562    5.0097    5.2075 H   0  0  0  0  0  0  0  0  0  0  0  0
   -4.6774    5.7037    6.1741 H   0  0  0  0  0  0  0  0  0  0  0  0
   -1.9033    4.9845    7.1006 H   0  0  0  0  0  0  0  0  0  0  0  0
   -3.2176    5.7332    8.1658 H   0  0  0  0  0  0  0  0  0  0  0  0
   -2.9772    7.8236    7.1194 H   0  0  0  0  0  0  0  0  0  0  0  0
   -1.2961    7.1391    6.8645 H   0  0  0  0  0  0  0  0  0  0  0  0
   -2.5822    7.0362    5.5590 H   0  0  0  0  0  0  0  0  0  0  0  0
    4.7499   -0.5117   -0.2237 H   0  0  0  0  0  0  0  0  0  0  0  0
    4.2936   -1.9754    1.9889 H   0  0  0  0  0  0  0  0  0  0  0  0
    5.7898   -1.1671    2.6115 H   0  0  0  0  0  0  0  0  0  0  0  0
    6.9996   -2.3024    0.6490 H   0  0  0  0  0  0  0  0  0  0  0  0
    6.2101   -3.4441    1.8032 H   0  0  0  0  0  0  0  0  0  0  0  0
    4.2344   -3.5801    0.4744 H   0  0  0  0  0  0  0  0  0  0  0  0
    4.9034   -2.4812   -0.7902 H   0  0  0  0  0  0  0  0  0  0  0  0
    6.2256   -5.1588   -0.0651 H   0  0  0  0  0  0  0  0  0  0  0  0
    6.7040   -3.9413   -1.3528 H   0  0  0  0  0  0  0  0  0  0  0  0
    5.6136   -5.8395   -2.2945 H   0  0  0  0  0  0  0  0  0  0  0  0
    4.7524   -4.2461   -2.4886 H   0  0  0  0  0  0  0  0  0  0  0  0
    4.3311   -6.1749   -0.1383 H   0  0  0  0  0  0  0  0  0  0  0  0
    3.2639   -4.7852   -0.6128 H   0  0  0  0  0  0  0  0  0  0  0  0
    3.2733   -7.5263   -2.0155 H   0  0  0  0  0  0  0  0  0  0  0  0
    2.1801   -6.8946   -0.7926 H   0  0  0  0  0  0  0  0  0  0  0  0
    1.4449   -5.0473   -2.2212 H   0  0  0  0  0  0  0  0  0  0  0  0
    0.9985   -6.6607   -2.7581 H   0  0  0  0  0  0  0  0  0  0  0  0
    3.0877   -6.3504   -4.4786 H   0  0  0  0  0  0  0  0  0  0  0  0
    3.1468   -4.6998   -3.8582 H   0  0  0  0  0  0  0  0  0  0  0  0
    0.9686   -4.1188   -4.4849 H   0  0  0  0  0  0  0  0  0  0  0  0
    2.0009   -4.5872   -5.8704 H   0  0  0  0  0  0  0  0  0  0  0  0
    0.7953   -6.6107   -6.2861 H   0  0  0  0  0  0  0  0  0  0  0  0
   -0.2189   -5.1729   -6.2558 H   0  0  0  0  0  0  0  0  0  0  0  0
   -1.4624   -6.8638   -5.4810 H   0  0  0  0  0  0  0  0  0  0  0  0
   -0.4002   -7.4679   -4.2448 H   0  0  0  0  0  0  0  0  0  0  0  0
   -2.0250   -4.8495   -4.4652 H   0  0  0  0  0  0  0  0  0  0  0  0
   -0.7398   -4.9599   -3.1830 H   0  0  0  0  0  0  0  0  0  0  0  0
   -1.9539   -7.0157   -2.3167 H   0  0  0  0  0  0  0  0  0  0  0  0
   -3.2301   -6.7811   -3.5449 H   0  0  0  0  0  0  0  0  0  0  0  0
   -2.4413   -4.7467   -1.3739 H   0  0  0  0  0  0  0  0  0  0  0  0
   -3.6728   -4.4920   -2.6557 H   0  0  0  0  0  0  0  0  0  0  0  0
   -4.9966   -6.3988   -1.8447 H   0  0  0  0  0  0  0  0  0  0  0  0
   -3.7936   -6.7837   -0.6125 H   0  0  0  0  0  0  0  0  0  0  0  0
   -4.2002   -4.7226    0.5766 H   0  0  0  0  0  0  0  0  0  0  0  0
   -4.9636   -3.9379   -0.8340 H   0  0  0  0  0  0  0  0  0  0  0  0
   -5.8211   -5.2773    0.0747 H   0  0  0  0  0  0  0  0  0  0  0  0
    0.7995    2.1573    3.4540 H   0  0  0  0  0  0  0  0  0  0  0  0
    6.7979   -0.2709    0.0644 H   0  0  0  0  0  0  0  0  0  0  0  0
    0.9048   -2.5267   -2.6919 H   0  0  0  0  0  0  0  0  0  0  0  0
    0.9014   -2.7823   -0.4592 H   0  0  0  0  0  0  0  0  0  0  0  0
    2.0702   -0.3926   -2.5353 H   0  0  0  0  0  0  0  0  0  0  0  0
  1  2  1  0
  1 52  1  0
  2  3  1  0
  2 46  1  0
  3 47  1  0
  4  5  1  0
  4 53  1  0
 45  5  1  1
  6 45  1  0
  7 45  1  0
  8 45  1  0
  9 10  1  0
  9 47  1  0
  9 48  1  0
 10 11  1  0
 11 12  1  0
 12 13  1  0
 13 14  1  0
 14 15  1  0
 15 16  1  0
 16 17  1  0
 17 18  1  0
 18 19  1  0
 19 20  1  0
 20 21  1  0
 21 22  1  0
 22 23  1  0
 23 24  1  0
 24 25  1  0
 25 26  1  0
 27 28  1  0
 27 46  1  0
 27 49  1  0
 28 29  1  0
 29 30  1  0
 30 31  1  0
 31 32  1  0
 32 33  1  0
 33 34  1  0
 34 35  1  0
 35 36  1  0
 36 37  1  0
 37 38  1  0
 38 39  1  0
 39 40  1  0
 40 41  1  0
 41 42  1  0
 42 43  1  0
 43 44  1  0
 50 54  1  0
 51 54  1  0
 52 54  1  0
 53 54  1  0
  1 55  1  0
  1 56  1  0
  2 57  1  6
  3 58  1  0
  3 59  1  0
  4 60  1  0
  4 61  1  0
  5 62  1  0
  5 63  1  0
  6 64  1  0
  6 65  1  0
  6 66  1  0
  7 67  1  0
  7 68  1  0
  7 69  1  0
  8 70  1  0
  8 71  1  0
  8 72  1  0
  9 73  1  0
 10 74  1  0
 10 75  1  0
 11 76  1  0
 11 77  1  0
 12 78  1  0
 12 79  1  0
 13 80  1  0
 13 81  1  0
 14 82  1  0
 14 83  1  0
 15 84  1  0
 15 85  1  0
 16 86  1  0
 16 87  1  0
 17 88  1  0
 17 89  1  0
 18 90  1  0
 18 91  1  0
 19 92  1  0
 19 93  1  0
 20 94  1  0
 20 95  1  0
 21 96  1  0
 21 97  1  0
 22 98  1  0
 22 99  1  0
 23100  1  0
 23101  1  0
 24102  1  0
 24103  1  0
 25104  1  0
 25105  1  0
 26106  1  0
 26107  1  0
 26108  1  0
 27109  1  6
 28110  1  0
 28111  1  0
 29112  1  0
 29113  1  0
 30114  1  0
 30115  1  0
 31116  1  0
 31117  1  0
 32118  1  0
 32119  1  0
 33120  1  0
 33121  1  0
 34122  1  0
 34123  1  0
 35124  1  0
 35125  1  0
 36126  1  0
 36127  1  0
 37128  1  0
 37129  1  0
 38130  1  0
 38131  1  0
 39132  1  0
 39133  1  0
 40134  1  0
 40135  1  0
 41136  1  0
 41137  1  0
 42138  1  0
 42139  1  0
 43140  1  0
 43141  1  0
 44142  1  0
 44143  1  0
 44144  1  0
 48145  1  0
 49146  1  0
 50147  1  0
 51148  1  0
 54149  1  0
M  CHG  1  45   1
M  END
$$$$
PHOSPHATIDYLCHOLINE TRANSFER PROTEIN
     RDKit          3D

149148  0  0  0  0  0  0  0  0999 V2000
   -1.6365   -0.3081    1.3198 C   0  0  0  0  0  0  0  0  0  0  0  0
   -1.7943   -0.0459   -0.2033 C   0  0  1  0  0  0  0  0  0  0  0  0
   -2.9665   -0.7661   -0.7407 C   0  0  0  0  0  0  0  0  0  0  0  0
   -4.1247    2.3317    2.8787 C   0  0  0  0  0  0  0  0  0  0  0  0
   -5.2300    2.6025    1.8441 C   0  0  0  0  0  0  0  0  0  0  0  0
   -7.0042    3.8212    2.8655 C   0  0  0  0  0  0  0  0  0  0  0  0
   -6.0989    4.5689    0.8406 C   0  0  0  0  0  0  0  0  0  0  0  0
   -4.8154    4.7595    2.7926 C   0  0  0  0  0  0  0  0  0  0  0  0
   -5.2149   -1.2059   -0.6954 C   0  0  0  0  0  0  0  0  0  0  0  0
   -5.7354   -2.5248   -0.2207 C   0  0  0  0  0  0  0  0  0  0  0  0
   -6.1924   -2.6337    1.1827 C   0  0  0  0  0  0  0  0  0  0  0  0
   -5.0706   -2.4058    2.1764 C   0  0  0  0  0  0  0  0  0  0  0  0
   -3.9650   -3.4428    1.9605 C   0  0  0  0  0  0  0  0  0  0  0  0
   -4.4462   -4.8215    2.2000 C   0  0  0  0  0  0  0  0  0  0  0  0
   -3.4422   -5.8673    1.9600 C   0  0  0  0  0  0  0  0  0  0  0  0
   -2.9315   -6.1900    0.6376 C   0  0  0  0  0  0  0  0  0  0  0  0
   -2.2491   -5.2225   -0.2437 C   0  0  0  0  0  0  0  0  0  0  0  0
   -1.8582   -6.0547   -1.4942 C   0  0  0  0  0  0  0  0  0  0  0  0
   -1.1805   -5.2576   -2.5411 C   0  0  0  0  0  0  0  0  0  0  0  0
    0.0987   -4.6596   -2.0251 C   0  0  0  0  0  0  0  0  0  0  0  0
    0.7773   -3.8740   -3.1363 C   0  0  0  0  0  0  0  0  0  0  0  0
    2.0535   -3.2846   -2.5882 C   0  0  0  0  0  0  0  0  0  0  0  0
    2.7396   -2.5228   -3.6715 C   0  0  0  0  0  0  0  0  0  0  0  0
    3.1847   -3.2820   -4.8616 C   0  0  0  0  0  0  0  0  0  0  0  0
    4.2384   -4.2985   -4.6853 C   0  0  0  0  0  0  0  0  0  0  0  0
    3.9556   -5.4416   -3.7873 C   0  0  0  0  0  0  0  0  0  0  0  0
   -0.7932    1.9864   -0.7372 C   0  0  1  0  0  0  0  0  0  0  0  0
   -0.4059    3.1826    0.0826 C   0  0  0  0  0  0  0  0  0  0  0  0
    0.8186    3.8957   -0.3912 C   0  0  0  0  0  0  0  0  0  0  0  0
    1.0327    5.0913    0.5209 C   0  0  0  0  0  0  0  0  0  0  0  0
    1.1955    4.7320    1.9641 C   0  0  0  0  0  0  0  0  0  0  0  0
    2.4252    3.8204    2.2044 C   0  0  0  0  0  0  0  0  0  0  0  0
    2.4300    3.5421    3.6559 C   0  0  0  0  0  0  0  0  0  0  0  0
    3.4617    2.6890    4.2533 C   0  0  0  0  0  0  0  0  0  0  0  0
    4.8795    3.0510    4.2461 C   0  0  0  0  0  0  0  0  0  0  0  0
    5.6030    3.2459    2.9628 C   0  0  0  0  0  0  0  0  0  0  0  0
    5.5860    2.0740    2.0562 C   0  0  0  0  0  0  0  0  0  0  0  0
    6.3649    2.3454    0.8030 C   0  0  0  0  0  0  0  0  0  0  0  0
    5.7650    3.4859    0.0403 C   0  0  0  0  0  0  0  0  0  0  0  0
    6.5338    3.7867   -1.2374 C   0  0  0  0  0  0  0  0  0  0  0  0
    6.5661    2.5912   -2.1574 C   0  0  0  0  0  0  0  0  0  0  0  0
    5.2218    2.1124   -2.5924 C   0  0  0  0  0  0  0  0  0  0  0  0
    5.3140    0.9162   -3.5044 C   0  0  0  0  0  0  0  0  0  0  0  0
    6.0994    1.1997   -4.7693 C   0  0  0  0  0  0  0  0  0  0  0  0
   -5.7552    3.9067    2.1111 N   0  0  2  0  0  0  0  0  0  0  0  0
   -1.9381    1.3614   -0.2198 O   0  0  0  0  0  0  0  0  0  0  0  0
   -4.1237   -0.7044    0.0059 O   0  0  0  0  0  0  0  0  0  0  0  0
   -6.2244   -0.2558   -0.7512 O   0  0  0  0  0  0  0  0  0  0  0  0
   -1.2101    2.4922   -2.0039 O   0  0  0  0  0  0  0  0  0  0  0  0
   -3.2442    0.3567    4.8825 O   0  0  0  0  0  0  0  0  0  0  0  0
   -2.6258   -0.9047    4.1542 O   0  0  0  0  0  0  0  0  0  0  0  0
   -2.7340    0.3007    1.8844 O   0  0  0  0  0  0  0  0  0  0  0  0
   -3.6581    1.0578    2.5709 O   0  0  0  0  0  0  0  0  0  0  0  0
   -2.3403    0.6051    3.5050 P   0  0  0  0  0  0  0  0  0  0  0  0
   -0.6651    0.1619    1.5906 H   0  0  0  0  0  0  0  0  0  0  0  0
   -1.5495   -1.3811    1.5114 H   0  0  0  0  0  0  0  0  0  0  0  0
   -0.8353   -0.3548   -0.6711 H   0  0  0  0  0  0  0  0  0  0  0  0
   -3.2514   -0.3933   -1.7782 H   0  0  0  0  0  0  0  0  0  0  0  0
   -2.6875   -1.8500   -0.9533 H   0  0  0  0  0  0  0  0  0  0  0  0
   -4.5975    2.2759    3.8812 H   0  0  0  0  0  0  0  0  0  0  0  0
   -3.3239    3.0880    2.7963 H   0  0  0  0  0  0  0  0  0  0  0  0
   -5.9683    1.7861    1.8841 H   0  0  0  0  0  0  0  0  0  0  0  0
   -4.7439    2.5405    0.8359 H   0  0  0  0  0  0  0  0  0  0  0  0
   -6.8129    3.6903    3.9538 H   0  0  0  0  0  0  0  0  0  0  0  0
   -7.6433    3.0060    2.5194 H   0  0  0  0  0  0  0  0  0  0  0  0
   -7.5274    4.7793    2.7339 H   0  0  0  0  0  0  0  0  0  0  0  0
   -5.1599    5.0133    0.4523 H   0  0  0  0  0  0  0  0  0  0  0  0
   -6.4995    3.8411    0.0954 H   0  0  0  0  0  0  0  0  0  0  0  0
   -6.8511    5.3306    1.0858 H   0  0  0  0  0  0  0  0  0  0  0  0
   -3.9841    4.9860    2.0917 H   0  0  0  0  0  0  0  0  0  0  0  0
   -5.3471    5.7385    2.9657 H   0  0  0  0  0  0  0  0  0  0  0  0
   -4.5210    4.4103    3.7797 H   0  0  0  0  0  0  0  0  0  0  0  0
   -4.8522   -1.4020   -1.7773 H   0  0  0  0  0  0  0  0  0  0  0  0
   -6.6256   -2.7470   -0.8888 H   0  0  0  0  0  0  0  0  0  0  0  0
   -4.9945   -3.3115   -0.5063 H   0  0  0  0  0  0  0  0  0  0  0  0
   -6.7654   -3.5391    1.4042 H   0  0  0  0  0  0  0  0  0  0  0  0
   -6.9063   -1.7743    1.3580 H   0  0  0  0  0  0  0  0  0  0  0  0
   -5.4723   -2.6126    3.1895 H   0  0  0  0  0  0  0  0  0  0  0  0
   -4.6437   -1.4308    2.1624 H   0  0  0  0  0  0  0  0  0  0  0  0
   -3.2441   -3.2174    2.8183 H   0  0  0  0  0  0  0  0  0  0  0  0
   -3.3839   -3.2321    1.0709 H   0  0  0  0  0  0  0  0  0  0  0  0
   -4.7357   -4.8556    3.3047 H   0  0  0  0  0  0  0  0  0  0  0  0
   -5.4322   -5.0335    1.7047 H   0  0  0  0  0  0  0  0  0  0  0  0
   -2.5430   -5.7169    2.6722 H   0  0  0  0  0  0  0  0  0  0  0  0
   -3.8456   -6.8594    2.3894 H   0  0  0  0  0  0  0  0  0  0  0  0
   -2.1642   -7.0380    0.7919 H   0  0  0  0  0  0  0  0  0  0  0  0
   -3.6934   -6.7274   -0.0153 H   0  0  0  0  0  0  0  0  0  0  0  0
   -1.3179   -4.8172    0.1517 H   0  0  0  0  0  0  0  0  0  0  0  0
   -2.9208   -4.4460   -0.7201 H   0  0  0  0  0  0  0  0  0  0  0  0
   -1.3273   -6.9604   -1.1866 H   0  0  0  0  0  0  0  0  0  0  0  0
   -2.8648   -6.3547   -1.9130 H   0  0  0  0  0  0  0  0  0  0  0  0
   -0.9068   -5.8651   -3.4372 H   0  0  0  0  0  0  0  0  0  0  0  0
   -1.8142   -4.3871   -2.8890 H   0  0  0  0  0  0  0  0  0  0  0  0
    0.8046   -5.4226   -1.6409 H   0  0  0  0  0  0  0  0  0  0  0  0
   -0.1330   -3.9423   -1.1842 H   0  0  0  0  0  0  0  0  0  0  0  0
    0.8820   -4.4737   -4.0362 H   0  0  0  0  0  0  0  0  0  0  0  0
    0.1123   -3.0102   -3.3821 H   0  0  0  0  0  0  0  0  0  0  0  0
    1.7836   -2.5316   -1.7794 H   0  0  0  0  0  0  0  0  0  0  0  0
    2.6980   -4.0078   -2.0990 H   0  0  0  0  0  0  0  0  0  0  0  0
    2.0189   -1.7379   -4.0414 H   0  0  0  0  0  0  0  0  0  0  0  0
    3.6404   -1.9732   -3.2614 H   0  0  0  0  0  0  0  0  0  0  0  0
    3.5296   -2.5223   -5.6269 H   0  0  0  0  0  0  0  0  0  0  0  0
    2.3020   -3.7631   -5.3812 H   0  0  0  0  0  0  0  0  0  0  0  0
    4.5731   -4.6770   -5.7101 H   0  0  0  0  0  0  0  0  0  0  0  0
    5.1564   -3.7780   -4.2393 H   0  0  0  0  0  0  0  0  0  0  0  0
    2.8820   -5.6807   -3.7740 H   0  0  0  0  0  0  0  0  0  0  0  0
    4.4573   -6.3910   -4.2183 H   0  0  0  0  0  0  0  0  0  0  0  0
    4.4157   -5.3744   -2.7692 H   0  0  0  0  0  0  0  0  0  0  0  0
    0.0191    1.2944   -0.9871 H   0  0  0  0  0  0  0  0  0  0  0  0
   -1.2275    3.9501    0.0903 H   0  0  0  0  0  0  0  0  0  0  0  0
   -0.3145    2.8806    1.1577 H   0  0  0  0  0  0  0  0  0  0  0  0
    1.7262    3.2762   -0.4077 H   0  0  0  0  0  0  0  0  0  0  0  0
    0.6142    4.3045   -1.3960 H   0  0  0  0  0  0  0  0  0  0  0  0
    0.1530    5.7574    0.4251 H   0  0  0  0  0  0  0  0  0  0  0  0
    1.9464    5.6635    0.2170 H   0  0  0  0  0  0  0  0  0  0  0  0
    1.4653    5.6964    2.4878 H   0  0  0  0  0  0  0  0  0  0  0  0
    0.2992    4.3310    2.4444 H   0  0  0  0  0  0  0  0  0  0  0  0
    3.2473    4.3755    1.7749 H   0  0  0  0  0  0  0  0  0  0  0  0
    2.2239    2.9337    1.5679 H   0  0  0  0  0  0  0  0  0  0  0  0
    2.3285    4.5236    4.2014 H   0  0  0  0  0  0  0  0  0  0  0  0
    1.4299    3.0418    3.8822 H   0  0  0  0  0  0  0  0  0  0  0  0
    3.2945    1.5992    3.9387 H   0  0  0  0  0  0  0  0  0  0  0  0
    3.1740    2.6033    5.3680 H   0  0  0  0  0  0  0  0  0  0  0  0
    5.4952    2.2775    4.8210 H   0  0  0  0  0  0  0  0  0  0  0  0
    5.0058    3.9670    4.9130 H   0  0  0  0  0  0  0  0  0  0  0  0
    6.7283    3.3995    3.2030 H   0  0  0  0  0  0  0  0  0  0  0  0
    5.3343    4.2091    2.5354 H   0  0  0  0  0  0  0  0  0  0  0  0
    6.0867    1.2188    2.5658 H   0  0  0  0  0  0  0  0  0  0  0  0
    4.5557    1.7907    1.7190 H   0  0  0  0  0  0  0  0  0  0  0  0
    6.3679    1.4180    0.1606 H   0  0  0  0  0  0  0  0  0  0  0  0
    7.4493    2.5288    1.0154 H   0  0  0  0  0  0  0  0  0  0  0  0
    5.7863    4.3914    0.6781 H   0  0  0  0  0  0  0  0  0  0  0  0
    4.7406    3.2318   -0.2876 H   0  0  0  0  0  0  0  0  0  0  0  0
    6.0075    4.6462   -1.7415 H   0  0  0  0  0  0  0  0  0  0  0  0
    7.5589    4.1132   -1.0449 H   0  0  0  0  0  0  0  0  0  0  0  0
    7.1335    2.8729   -3.0822 H   0  0  0  0  0  0  0  0  0  0  0  0
    7.1454    1.7848   -1.6554 H   0  0  0  0  0  0  0  0  0  0  0  0
    4.7131    2.9720   -3.0982 H   0  0  0  0  0  0  0  0  0  0  0  0
    4.6312    1.7692   -1.7031 H   0  0  0  0  0  0  0  0  0  0  0  0
    4.3121    0.5468   -3.8071 H   0  0  0  0  0  0  0  0  0  0  0  0
    5.7730    0.0824   -2.9369 H   0  0  0  0  0  0  0  0  0  0  0  0
    6.2946    2.2769   -4.8335 H   0  0  0  0  0  0  0  0  0  0  0  0
    7.0181    0.5608   -4.7838 H   0  0  0  0  0  0  0  0  0  0  0  0
    5.4964    0.9472   -5.6857 H   0  0  0  0  0  0  0  0  0  0  0  0
   -7.1013   -0.6643   -0.5904 H   0  0  0  0  0  0  0  0  0  0  0  0
   -2.0298    3.0515   -1.8712 H   0  0  0  0  0  0  0  0  0  0  0  0
   -3.6278    1.1716    5.2660 H   0  0  0  0  0  0  0  0  0  0  0  0
   -1.9168   -1.5862    3.9515 H   0  0  0  0  0  0  0  0  0  0  0  0
   -0.9337    0.5955    3.6209 H   0  0  0  0  0  0  0  0  0  0  0  0
  1  2  1  0
  1 52  1  0
  2  3  1  0
  2 46  1  0
  3 47  1  0
  4  5  1  0
  4 53  1  0
 45  5  1  6
  6 45  1  0
  7 45  1  0
  8 45  1  0
  9 10  1  0
  9 47  1  0
  9 48  1  0
 10 11  1  0
 11 12  1  0
 12 13  1  0
 13 14  1  0
 14 15  1  0
 15 16  1  0
 16 17  1  0
 17 18  1  0
 18 19  1  0
 19 20  1  0
 20 21  1  0
 21 22  1  0
 22 23  1  0
 23 24  1  0
 24 25  1  0
 25 26  1  0
 27 28  1  0
 27 46  1  0
 27 49  1  0
 28 29  1  0
 29 30  1  0
 30 31  1  0
 31 32  1  0
 32 33  1  0
 33 34  1  0
 34 35  1  0
 35 36  1  0
 36 37  1  0
 37 38  1  0
 38 39  1  0
 39 40  1  0
 40 41  1  0
 41 42  1  0
 42 43  1  0
 43 44  1  0
 50 54  1  0
 51 54  1  0
 52 54  1  0
 53 54  1  0
  1 55  1  0
  1 56  1  0
  2 57  1  6
  3 58  1  0
  3 59  1  0
  4 60  1  0
  4 61  1  0
  5 62  1  0
  5 63  1  0
  6 64  1  0
  6 65  1  0
  6 66  1  0
  7 67  1  0
  7 68  1  0
  7 69  1  0
  8 70  1  0
  8 71  1  0
  8 72  1  0
  9 73  1  0
 10 74  1  0
 10 75  1  0
 11 76  1  0
 11 77  1  0
 12 78  1  0
 12 79  1  0
 13 80  1  0
 13 81  1  0
 14 82  1  0
 14 83  1  0
 15 84  1  0
 15 85  1  0
 16 86  1  0
 16 87  1  0
 17 88  1  0
 17 89  1  0
 18 90  1  0
 18 91  1  0
 19 92  1  0
 19 93  1  0
 20 94  1  0
 20 95  1  0
 21 96  1  0
 21 97  1  0
 22 98  1  0
 22 99  1  0
 23100  1  0
 23101  1  0
 24102  1  0
 24103  1  0
 25104  1  0
 25105  1  0
 26106  1  0
 26107  1  0
 26108  1  0
 27109  1  6
 28110  1  0
 28111  1  0
 29112  1  0
 29113  1  0
 30114  1  0
 30115  1  0
 31116  1  0
 31117  1  0
 32118  1  0
 32119  1  0
 33120  1  0
 33121  1  0
 34122  1  0
 34123  1  0
 35124  1  0
 35125  1  0
 36126  1  0
 36127  1  0
 37128  1  0
 37129  1  0
 38130  1  0
 38131  1  0
 39132  1  0
 39133  1  0
 40134  1  0
 40135  1  0
 41136  1  0
 41137  1  0
 42138  1  0
 42139  1  0
 43140  1  0
 43141  1  0
 44142  1  0
 44143  1  0
 44144  1  0
 48145  1  0
 49146  1  0
 50147  1  0
 51148  1  0
 54149  1  0
M  CHG  1  45   1
M  END
$$$$
PHOSPHATIDYLCHOLINE TRANSFER PROTEIN
     RDKit          3D

149148  0  0  0  0  0  0  0  0999 V2000
    1.6139   -3.1232    4.7566 C   0  0  0  0  0  0  0  0  0  0  0  0
    0.8229   -1.8315    4.8119 C   0  0  1  0  0  0  0  0  0  0  0  0
    1.6484   -0.7595    5.5369 C   0  0  0  0  0  0  0  0  0  0  0  0
    2.3178   -6.2586    2.4802 C   0  0  0  0  0  0  0  0  0  0  0  0
    1.9683   -7.6661    2.1130 C   0  0  0  0  0  0  0  0  0  0  0  0
   -0.1658   -8.4011    2.9597 C   0  0  0  0  0  0  0  0  0  0  0  0
    1.6139   -8.0781    4.4751 C   0  0  0  0  0  0  0  0  0  0  0  0
    1.6619   -9.8313    2.9596 C   0  0  0  0  0  0  0  0  0  0  0  0
    3.4846    0.5583    5.3972 C   0  0  0  0  0  0  0  0  0  0  0  0
    3.6599    1.6283    4.3323 C   0  0  0  0  0  0  0  0  0  0  0  0
    4.3316    2.8283    4.8700 C   0  0  0  0  0  0  0  0  0  0  0  0
    4.5240    3.9313    3.7953 C   0  0  0  0  0  0  0  0  0  0  0  0
    5.3924    3.4281    2.7292 C   0  0  0  0  0  0  0  0  0  0  0  0
    5.7381    4.2497    1.5440 C   0  0  0  0  0  0  0  0  0  0  0  0
    4.7279    4.6018    0.5265 C   0  0  0  0  0  0  0  0  0  0  0  0
    3.5659    5.3507    0.9897 C   0  0  0  0  0  0  0  0  0  0  0  0
    2.6161    5.7634   -0.1450 C   0  0  0  0  0  0  0  0  0  0  0  0
    2.0963    4.5874   -0.8958 C   0  0  0  0  0  0  0  0  0  0  0  0
    1.3144    3.5900   -0.1106 C   0  0  0  0  0  0  0  0  0  0  0  0
    0.0613    4.1269    0.5208 C   0  0  0  0  0  0  0  0  0  0  0  0
   -0.8673    4.6495   -0.5385 C   0  0  0  0  0  0  0  0  0  0  0  0
   -2.1832    5.1928    0.0356 C   0  0  0  0  0  0  0  0  0  0  0  0
   -2.9084    4.1568    0.7973 C   0  0  0  0  0  0  0  0  0  0  0  0
   -4.2372    4.5426    1.3322 C   0  0  0  0  0  0  0  0  0  0  0  0
   -4.3305    5.6984    2.2641 C   0  0  0  0  0  0  0  0  0  0  0  0
   -3.9564    7.0252    1.7279 C   0  0  0  0  0  0  0  0  0  0  0  0
   -0.8840   -1.3819    3.3999 C   0  0  1  0  0  0  0  0  0  0  0  0
   -1.3185   -1.7142    2.0284 C   0  0  0  0  0  0  0  0  0  0  0  0
   -2.8275   -1.7278    1.8735 C   0  0  0  0  0  0  0  0  0  0  0  0
   -3.1760   -1.9511    0.4052 C   0  0  0  0  0  0  0  0  0  0  0  0
   -4.6618   -2.0174    0.2462 C   0  0  0  0  0  0  0  0  0  0  0  0
   -5.0435   -2.1358   -1.2358 C   0  0  0  0  0  0  0  0  0  0  0  0
   -4.6012   -0.8860   -1.9673 C   0  0  0  0  0  0  0  0  0  0  0  0
   -4.9497   -1.0484   -3.4336 C   0  0  0  0  0  0  0  0  0  0  0  0
   -4.5447    0.2335   -4.1829 C   0  0  0  0  0  0  0  0  0  0  0  0
   -4.8204    0.0578   -5.6224 C   0  0  0  0  0  0  0  0  0  0  0  0
   -4.5090    1.2316   -6.4839 C   0  0  0  0  0  0  0  0  0  0  0  0
   -3.1404    1.7622   -6.4730 C   0  0  0  0  0  0  0  0  0  0  0  0
   -2.0086    0.9091   -6.8336 C   0  0  0  0  0  0  0  0  0  0  0  0
   -1.9484    0.2815   -8.1713 C   0  0  0  0  0  0  0  0  0  0  0  0
   -1.9706    1.2290   -9.3460 C   0  0  0  0  0  0  0  0  0  0  0  0
   -1.8660    0.4101  -10.5797 C   0  0  0  0  0  0  0  0  0  0  0  0
   -2.8604   -0.6284  -10.8570 C   0  0  0  0  0  0  0  0  0  0  0  0
   -4.2864   -0.2534  -10.9795 C   0  0  0  0  0  0  0  0  0  0  0  0
    1.2820   -8.4176    3.1145 N   0  0  2  0  0  0  0  0  0  0  0  0
    0.4949   -1.3694    3.5563 O   0  0  0  0  0  0  0  0  0  0  0  0
    2.8287   -0.5401    4.8304 O   0  0  0  0  0  0  0  0  0  0  0  0
    4.7113    0.1681    5.9535 O   0  0  0  0  0  0  0  0  0  0  0  0
   -1.2426    0.0026    3.6515 O   0  0  0  0  0  0  0  0  0  0  0  0
    4.9809   -5.0449    4.3430 O   0  0  0  0  0  0  0  0  0  0  0  0
    3.8570   -3.1964    2.8162 O   0  0  0  0  0  0  0  0  0  0  0  0
    2.8080   -2.9548    4.0539 O   0  0  0  0  0  0  0  0  0  0  0  0
    3.1473   -6.1471    3.5800 O   0  0  0  0  0  0  0  0  0  0  0  0
    3.4635   -4.4955    3.8417 P   0  0  0  0  0  0  0  0  0  0  0  0
    1.8738   -3.3946    5.7943 H   0  0  0  0  0  0  0  0  0  0  0  0
    1.0281   -3.9260    4.3078 H   0  0  0  0  0  0  0  0  0  0  0  0
   -0.0704   -2.0317    5.3936 H   0  0  0  0  0  0  0  0  0  0  0  0
    1.9137   -1.1737    6.5193 H   0  0  0  0  0  0  0  0  0  0  0  0
    1.1178    0.1849    5.6655 H   0  0  0  0  0  0  0  0  0  0  0  0
    1.3835   -5.6630    2.5775 H   0  0  0  0  0  0  0  0  0  0  0  0
    2.8732   -5.8292    1.6205 H   0  0  0  0  0  0  0  0  0  0  0  0
    1.3343   -7.6952    1.1956 H   0  0  0  0  0  0  0  0  0  0  0  0
    2.9125   -8.2234    1.8612 H   0  0  0  0  0  0  0  0  0  0  0  0
   -0.4878   -8.0431    1.9570 H   0  0  0  0  0  0  0  0  0  0  0  0
   -0.6078   -9.4154    3.0681 H   0  0  0  0  0  0  0  0  0  0  0  0
   -0.6030   -7.7921    3.7815 H   0  0  0  0  0  0  0  0  0  0  0  0
    2.7053   -8.1602    4.6632 H   0  0  0  0  0  0  0  0  0  0  0  0
    1.0499   -8.7161    5.2015 H   0  0  0  0  0  0  0  0  0  0  0  0
    1.3204   -7.0324    4.6915 H   0  0  0  0  0  0  0  0  0  0  0  0
    0.8638  -10.4610    3.4045 H   0  0  0  0  0  0  0  0  0  0  0  0
    2.6308   -9.9889    3.4757 H   0  0  0  0  0  0  0  0  0  0  0  0
    1.7187  -10.0876    1.8974 H   0  0  0  0  0  0  0  0  0  0  0  0
    2.8849    0.9704    6.2096 H   0  0  0  0  0  0  0  0  0  0  0  0
    2.6141    1.8884    4.0255 H   0  0  0  0  0  0  0  0  0  0  0  0
    4.1613    1.1493    3.4626 H   0  0  0  0  0  0  0  0  0  0  0  0
    3.7056    3.3119    5.6488 H   0  0  0  0  0  0  0  0  0  0  0  0
    5.3371    2.6461    5.2923 H   0  0  0  0  0  0  0  0  0  0  0  0
    5.1083    4.7224    4.3944 H   0  0  0  0  0  0  0  0  0  0  0  0
    3.5840    4.4034    3.5940 H   0  0  0  0  0  0  0  0  0  0  0  0
    6.3133    2.9976    3.2175 H   0  0  0  0  0  0  0  0  0  0  0  0
    4.8572    2.4977    2.3030 H   0  0  0  0  0  0  0  0  0  0  0  0
    6.6320    3.7206    1.0709 H   0  0  0  0  0  0  0  0  0  0  0  0
    6.2457    5.1812    1.9652 H   0  0  0  0  0  0  0  0  0  0  0  0
    5.3036    5.1586   -0.2859 H   0  0  0  0  0  0  0  0  0  0  0  0
    4.4529    3.6118    0.0355 H   0  0  0  0  0  0  0  0  0  0  0  0
    2.9141    4.6359    1.5816 H   0  0  0  0  0  0  0  0  0  0  0  0
    3.8322    6.1650    1.6556 H   0  0  0  0  0  0  0  0  0  0  0  0
    3.2508    6.3419   -0.8509 H   0  0  0  0  0  0  0  0  0  0  0  0
    1.8309    6.4581    0.2001 H   0  0  0  0  0  0  0  0  0  0  0  0
    1.4170    4.9831   -1.6898 H   0  0  0  0  0  0  0  0  0  0  0  0
    2.9392    4.1164   -1.4402 H   0  0  0  0  0  0  0  0  0  0  0  0
    0.9902    2.7448   -0.7695 H   0  0  0  0  0  0  0  0  0  0  0  0
    1.9968    3.1116    0.6221 H   0  0  0  0  0  0  0  0  0  0  0  0
    0.1911    4.8217    1.3418 H   0  0  0  0  0  0  0  0  0  0  0  0
   -0.4524    3.2282    0.9874 H   0  0  0  0  0  0  0  0  0  0  0  0
   -1.0344    3.9463   -1.3534 H   0  0  0  0  0  0  0  0  0  0  0  0
   -0.3944    5.5475   -1.0061 H   0  0  0  0  0  0  0  0  0  0  0  0
   -1.8845    6.0830    0.6599 H   0  0  0  0  0  0  0  0  0  0  0  0
   -2.7710    5.5652   -0.8123 H   0  0  0  0  0  0  0  0  0  0  0  0
   -2.2777    3.8094    1.6854 H   0  0  0  0  0  0  0  0  0  0  0  0
   -3.0437    3.2252    0.1844 H   0  0  0  0  0  0  0  0  0  0  0  0
   -4.7141    3.6424    1.8719 H   0  0  0  0  0  0  0  0  0  0  0  0
   -4.9716    4.7343    0.4807 H   0  0  0  0  0  0  0  0  0  0  0  0
   -5.4283    5.7693    2.5612 H   0  0  0  0  0  0  0  0  0  0  0  0
   -3.7307    5.5160    3.2032 H   0  0  0  0  0  0  0  0  0  0  0  0
   -4.7445    7.7877    2.0356 H   0  0  0  0  0  0  0  0  0  0  0  0
   -3.0190    7.4487    2.1375 H   0  0  0  0  0  0  0  0  0  0  0  0
   -3.9429    7.0751    0.6407 H   0  0  0  0  0  0  0  0  0  0  0  0
   -1.3645   -1.8970    4.2037 H   0  0  0  0  0  0  0  0  0  0  0  0
   -0.8685   -2.6546    1.6291 H   0  0  0  0  0  0  0  0  0  0  0  0
   -0.9461   -0.9275    1.3227 H   0  0  0  0  0  0  0  0  0  0  0  0
   -3.2664   -2.5559    2.4487 H   0  0  0  0  0  0  0  0  0  0  0  0
   -3.2670   -0.7767    2.2085 H   0  0  0  0  0  0  0  0  0  0  0  0
   -2.6373   -2.8083   -0.0118 H   0  0  0  0  0  0  0  0  0  0  0  0
   -2.8111   -1.0204   -0.1035 H   0  0  0  0  0  0  0  0  0  0  0  0
   -5.0848   -2.9352    0.7325 H   0  0  0  0  0  0  0  0  0  0  0  0
   -5.1780   -1.1320    0.6320 H   0  0  0  0  0  0  0  0  0  0  0  0
   -6.1426   -2.1956   -1.3108 H   0  0  0  0  0  0  0  0  0  0  0  0
   -4.6153   -3.0498   -1.6817 H   0  0  0  0  0  0  0  0  0  0  0  0
   -3.5378   -0.6565   -1.8637 H   0  0  0  0  0  0  0  0  0  0  0  0
   -5.2137   -0.0076   -1.6020 H   0  0  0  0  0  0  0  0  0  0  0  0
   -6.0542   -1.1153   -3.5014 H   0  0  0  0  0  0  0  0  0  0  0  0
   -4.5234   -1.9444   -3.8940 H   0  0  0  0  0  0  0  0  0  0  0  0
   -3.4970    0.4384   -3.9214 H   0  0  0  0  0  0  0  0  0  0  0  0
   -5.1449    1.0358   -3.7076 H   0  0  0  0  0  0  0  0  0  0  0  0
   -5.9096   -0.1492   -5.7487 H   0  0  0  0  0  0  0  0  0  0  0  0
   -4.3412   -0.8856   -6.0158 H   0  0  0  0  0  0  0  0  0  0  0  0
   -4.8911    0.9947   -7.5137 H   0  0  0  0  0  0  0  0  0  0  0  0
   -5.1787    2.0686   -6.1234 H   0  0  0  0  0  0  0  0  0  0  0  0
   -2.9271    2.2239   -5.4811 H   0  0  0  0  0  0  0  0  0  0  0  0
   -3.1284    2.6538   -7.1698 H   0  0  0  0  0  0  0  0  0  0  0  0
   -1.0731    1.5407   -6.7410 H   0  0  0  0  0  0  0  0  0  0  0  0
   -1.8065    0.0820   -6.0916 H   0  0  0  0  0  0  0  0  0  0  0  0
   -2.6470   -0.5752   -8.2688 H   0  0  0  0  0  0  0  0  0  0  0  0
   -0.9216   -0.1976   -8.2310 H   0  0  0  0  0  0  0  0  0  0  0  0
   -0.9891    1.7939   -9.2804 H   0  0  0  0  0  0  0  0  0  0  0  0
   -2.7353    2.0016   -9.3149 H   0  0  0  0  0  0  0  0  0  0  0  0
   -0.8421   -0.0547  -10.5672 H   0  0  0  0  0  0  0  0  0  0  0  0
   -1.7837    1.1497  -11.4342 H   0  0  0  0  0  0  0  0  0  0  0  0
   -2.5357   -1.1516  -11.8083 H   0  0  0  0  0  0  0  0  0  0  0  0
   -2.7863   -1.4609  -10.0976 H   0  0  0  0  0  0  0  0  0  0  0  0
   -4.4143    0.5615  -11.7362 H   0  0  0  0  0  0  0  0  0  0  0  0
   -4.8961   -1.1016  -11.3525 H   0  0  0  0  0  0  0  0  0  0  0  0
   -4.7427    0.1477  -10.0534 H   0  0  0  0  0  0  0  0  0  0  0  0
    5.1388    0.9207    6.4175 H   0  0  0  0  0  0  0  0  0  0  0  0
   -1.2904    0.1338    4.6325 H   0  0  0  0  0  0  0  0  0  0  0  0
    5.6779   -4.3462    4.3673 H   0  0  0  0  0  0  0  0  0  0  0  0
    4.7287   -3.4425    2.3860 H   0  0  0  0  0  0  0  0  0  0  0  0
    3.6518   -5.6268    4.6208 H   0  0  0  0  0  0  0  0  0  0  0  0
  1  2  1  0
  1 52  1  0
  2  3  1  0
  2 46  1  0
  3 47  1  0
  4  5  1  0
  4 53  1  0
 45  5  1  6
  6 45  1  0
  7 45  1  0
  8 45  1  0
  9 10  1  0
  9 47  1  0
  9 48  1  0
 10 11  1  0
 11 12  1  0
 12 13  1  0
 13 14  1  0
 14 15  1  0
 15 16  1  0
 16 17  1  0
 17 18  1  0
 18 19  1  0
 19 20  1  0
 20 21  1  0
 21 22  1  0
 22 23  1  0
 23 24  1  0
 24 25  1  0
 25 26  1  0
 27 28  1  0
 27 46  1  0
 27 49  1  0
 28 29  1  0
 29 30  1  0
 30 31  1  0
 31 32  1  0
 32 33  1  0
 33 34  1  0
 34 35  1  0
 35 36  1  0
 36 37  1  0
 37 38  1  0
 38 39  1  0
 39 40  1  0
 40 41  1  0
 41 42  1  0
 42 43  1  0
 43 44  1  0
 50 54  1  0
 51 54  1  0
 52 54  1  0
 53 54  1  0
  1 55  1  0
  1 56  1  0
  2 57  1  1
  3 58  1  0
  3 59  1  0
  4 60  1  0
  4 61  1  0
  5 62  1  0
  5 63  1  0
  6 64  1  0
  6 65  1  0
  6 66  1  0
  7 67  1  0
  7 68  1  0
  7 69  1  0
  8 70  1  0
  8 71  1  0
  8 72  1  0
  9 73  1  0
 10 74  1  0
 10 75  1  0
 11 76  1  0
 11 77  1  0
 12 78  1  0
 12 79  1  0
 13 80  1  0
 13 81  1  0
 14 82  1  0
 14 83  1  0
 15 84  1  0
 15 85  1  0
 16 86  1  0
 16 87  1  0
 17 88  1  0
 17 89  1  0
 18 90  1  0
 18 91  1  0
 19 92  1  0
 19 93  1  0
 20 94  1  0
 20 95  1  0
 21 96  1  0
 21 97  1  0
 22 98  1  0
 22 99  1  0
 23100  1  0
 23101  1  0
 24102  1  0
 24103  1  0
 25104  1  0
 25105  1  0
 26106  1  0
 26107  1  0
 26108  1  0
 27109  1  1
 28110  1  0
 28111  1  0
 29112  1  0
 29113  1  0
 30114  1  0
 30115  1  0
 31116  1  0
 31117  1  0
 32118  1  0
 32119  1  0
 33120  1  0
 33121  1  0
 34122  1  0
 34123  1  0
 35124  1  0
 35125  1  0
 36126  1  0
 36127  1  0
 37128  1  0
 37129  1  0
 38130  1  0
 38131  1  0
 39132  1  0
 39133  1  0
 40134  1  0
 40135  1  0
 41136  1  0
 41137  1  0
 42138  1  0
 42139  1  0
 43140  1  0
 43141  1  0
 44142  1  0
 44143  1  0
 44144  1  0
 48145  1  0
 49146  1  0
 50147  1  0
 51148  1  0
 54149  1  0
M  CHG  1  45   1
M  END
$$$$
PHOSPHATIDYLCHOLINE TRANSFER PROTEIN
     RDKit          3D

149148  0  0  0  0  0  0  0  0999 V2000
   -2.5919    2.1090   -4.7197 C   0  0  0  0  0  0  0  0  0  0  0  0
   -1.1176    2.3838   -5.1653 C   0  0  1  0  0  0  0  0  0  0  0  0
   -0.5933    3.5410   -4.2846 C   0  0  0  0  0  0  0  0  0  0  0  0
   -4.4146   -2.1448   -4.0971 C   0  0  0  0  0  0  0  0  0  0  0  0
   -5.0097   -3.2323   -3.2365 C   0  0  0  0  0  0  0  0  0  0  0  0
   -3.5003   -4.5655   -4.5638 C   0  0  0  0  0  0  0  0  0  0  0  0
   -5.6661   -5.3072   -4.0642 C   0  0  0  0  0  0  0  0  0  0  0  0
   -4.0168   -5.2630   -2.4097 C   0  0  0  0  0  0  0  0  0  0  0  0
    1.4304    4.3620   -3.5678 C   0  0  0  0  0  0  0  0  0  0  0  0
    2.7917    3.7711   -3.5020 C   0  0  0  0  0  0  0  0  0  0  0  0
    3.6756    4.2199   -2.3929 C   0  0  0  0  0  0  0  0  0  0  0  0
    5.0731    3.6452   -2.6183 C   0  0  0  0  0  0  0  0  0  0  0  0
    6.0006    3.8779   -1.4761 C   0  0  0  0  0  0  0  0  0  0  0  0
    5.5672    3.0658   -0.2358 C   0  0  0  0  0  0  0  0  0  0  0  0
    5.6765    1.6196   -0.5546 C   0  0  0  0  0  0  0  0  0  0  0  0
    5.2844    0.6821    0.5566 C   0  0  0  0  0  0  0  0  0  0  0  0
    5.5406   -0.7281    0.0626 C   0  0  0  0  0  0  0  0  0  0  0  0
    5.2134   -1.8417    0.9515 C   0  0  0  0  0  0  0  0  0  0  0  0
    3.7730   -2.0123    1.3412 C   0  0  0  0  0  0  0  0  0  0  0  0
    3.5714   -3.2138    2.2399 C   0  0  0  0  0  0  0  0  0  0  0  0
    2.1274   -3.4009    2.5894 C   0  0  0  0  0  0  0  0  0  0  0  0
    1.2249   -3.6403    1.4051 C   0  0  0  0  0  0  0  0  0  0  0  0
   -0.1875   -3.8064    1.9360 C   0  0  0  0  0  0  0  0  0  0  0  0
   -1.1756   -4.0546    0.8230 C   0  0  0  0  0  0  0  0  0  0  0  0
   -2.5654   -4.2114    1.4020 C   0  0  0  0  0  0  0  0  0  0  0  0
   -2.9939   -2.9888    2.1424 C   0  0  0  0  0  0  0  0  0  0  0  0
    0.2807    0.4115   -5.3364 C   0  0  1  0  0  0  0  0  0  0  0  0
    0.1178   -0.9392   -4.6199 C   0  0  0  0  0  0  0  0  0  0  0  0
    0.5981   -0.7715   -3.1933 C   0  0  0  0  0  0  0  0  0  0  0  0
   -0.1310    0.1647   -2.3384 C   0  0  0  0  0  0  0  0  0  0  0  0
    0.5667    0.2546   -0.9574 C   0  0  0  0  0  0  0  0  0  0  0  0
   -0.1836    1.2651   -0.1226 C   0  0  0  0  0  0  0  0  0  0  0  0
    0.3783    1.5579    1.1900 C   0  0  0  0  0  0  0  0  0  0  0  0
    0.5101    0.4636    2.1972 C   0  0  0  0  0  0  0  0  0  0  0  0
    1.1320    1.0360    3.4823 C   0  0  0  0  0  0  0  0  0  0  0  0
    1.3191    0.0874    4.5754 C   0  0  0  0  0  0  0  0  0  0  0  0
    0.2217   -0.6886    5.1629 C   0  0  0  0  0  0  0  0  0  0  0  0
   -0.9449   -0.0588    5.8054 C   0  0  0  0  0  0  0  0  0  0  0  0
   -1.8137    0.7190    4.8841 C   0  0  0  0  0  0  0  0  0  0  0  0
   -2.9982    1.3034    5.5767 C   0  0  0  0  0  0  0  0  0  0  0  0
   -2.8034    2.2958    6.6472 C   0  0  0  0  0  0  0  0  0  0  0  0
   -2.2514    3.6183    6.3598 C   0  0  0  0  0  0  0  0  0  0  0  0
   -0.9039    3.8434    5.8201 C   0  0  0  0  0  0  0  0  0  0  0  0
    0.2342    3.3460    6.6442 C   0  0  0  0  0  0  0  0  0  0  0  0
   -4.5338   -4.5503   -3.5690 N   0  0  2  0  0  0  0  0  0  0  0  0
   -0.4184    1.3311   -4.7531 O   0  0  0  0  0  0  0  0  0  0  0  0
    0.7497    3.7041   -4.6075 O   0  0  0  0  0  0  0  0  0  0  0  0
    1.5790    5.7296   -4.0610 O   0  0  0  0  0  0  0  0  0  0  0  0
    1.7040    0.6700   -5.1104 O   0  0  0  0  0  0  0  0  0  0  0  0
   -5.6374   -0.0889   -5.5487 O   0  0  0  0  0  0  0  0  0  0  0  0
   -4.9806    0.6472   -3.0528 O   0  0  0  0  0  0  0  0  0  0  0  0
   -2.9463    0.9443   -5.3687 O   0  0  0  0  0  0  0  0  0  0  0  0
   -4.9390   -0.9323   -3.6914 O   0  0  0  0  0  0  0  0  0  0  0  0
   -4.3458    0.3639   -4.5927 P   0  0  0  0  0  0  0  0  0  0  0  0
   -3.1686    2.9957   -5.0105 H   0  0  0  0  0  0  0  0  0  0  0  0
   -2.5650    2.0372   -3.6329 H   0  0  0  0  0  0  0  0  0  0  0  0
   -1.1180    2.6718   -6.2027 H   0  0  0  0  0  0  0  0  0  0  0  0
   -0.8080    3.3819   -3.2399 H   0  0  0  0  0  0  0  0  0  0  0  0
   -1.1005    4.4745   -4.6103 H   0  0  0  0  0  0  0  0  0  0  0  0
   -3.3346   -2.1366   -3.8744 H   0  0  0  0  0  0  0  0  0  0  0  0
   -4.5276   -2.3613   -5.1734 H   0  0  0  0  0  0  0  0  0  0  0  0
   -4.6622   -3.0141   -2.1889 H   0  0  0  0  0  0  0  0  0  0  0  0
   -6.1079   -3.1920   -3.1971 H   0  0  0  0  0  0  0  0  0  0  0  0
   -3.1641   -5.6365   -4.6417 H   0  0  0  0  0  0  0  0  0  0  0  0
   -2.6014   -4.0021   -4.2793 H   0  0  0  0  0  0  0  0  0  0  0  0
   -3.8642   -4.3011   -5.5825 H   0  0  0  0  0  0  0  0  0  0  0  0
   -6.1863   -5.7292   -3.1845 H   0  0  0  0  0  0  0  0  0  0  0  0
   -5.2904   -6.0996   -4.7558 H   0  0  0  0  0  0  0  0  0  0  0  0
   -6.3363   -4.6301   -4.6613 H   0  0  0  0  0  0  0  0  0  0  0  0
   -4.7024   -5.2129   -1.5483 H   0  0  0  0  0  0  0  0  0  0  0  0
   -2.9968   -4.8699   -2.1429 H   0  0  0  0  0  0  0  0  0  0  0  0
   -3.8666   -6.3184   -2.6599 H   0  0  0  0  0  0  0  0  0  0  0  0
    0.9280    4.4954   -2.6511 H   0  0  0  0  0  0  0  0  0  0  0  0
    2.7745    2.6447   -3.5326 H   0  0  0  0  0  0  0  0  0  0  0  0
    3.3125    4.0246   -4.4803 H   0  0  0  0  0  0  0  0  0  0  0  0
    3.7951    5.3284   -2.4028 H   0  0  0  0  0  0  0  0  0  0  0  0
    3.2774    3.9721   -1.3860 H   0  0  0  0  0  0  0  0  0  0  0  0
    5.0948    2.6203   -2.9555 H   0  0  0  0  0  0  0  0  0  0  0  0
    5.4761    4.2921   -3.4696 H   0  0  0  0  0  0  0  0  0  0  0  0
    6.9985    3.4886   -1.7569 H   0  0  0  0  0  0  0  0  0  0  0  0
    6.0839    4.9273   -1.1706 H   0  0  0  0  0  0  0  0  0  0  0  0
    4.5930    3.4423    0.0596 H   0  0  0  0  0  0  0  0  0  0  0  0
    6.3021    3.3644    0.5455 H   0  0  0  0  0  0  0  0  0  0  0  0
    5.0678    1.3930   -1.4675 H   0  0  0  0  0  0  0  0  0  0  0  0
    6.7415    1.4419   -0.8816 H   0  0  0  0  0  0  0  0  0  0  0  0
    5.9409    0.8533    1.4282 H   0  0  0  0  0  0  0  0  0  0  0  0
    4.2133    0.7951    0.7507 H   0  0  0  0  0  0  0  0  0  0  0  0
    5.0872   -0.7784   -0.9501 H   0  0  0  0  0  0  0  0  0  0  0  0
    6.6513   -0.7711   -0.1441 H   0  0  0  0  0  0  0  0  0  0  0  0
    5.5025   -2.7992    0.4306 H   0  0  0  0  0  0  0  0  0  0  0  0
    5.7979   -1.7616    1.8941 H   0  0  0  0  0  0  0  0  0  0  0  0
    3.4380   -1.1170    1.9491 H   0  0  0  0  0  0  0  0  0  0  0  0
    3.0925   -2.0927    0.4965 H   0  0  0  0  0  0  0  0  0  0  0  0
    3.9729   -4.1408    1.7695 H   0  0  0  0  0  0  0  0  0  0  0  0
    4.1014   -3.0491    3.2170 H   0  0  0  0  0  0  0  0  0  0  0  0
    1.9922   -4.2891    3.2642 H   0  0  0  0  0  0  0  0  0  0  0  0
    1.7721   -2.5089    3.1231 H   0  0  0  0  0  0  0  0  0  0  0  0
    1.2257   -2.8175    0.6978 H   0  0  0  0  0  0  0  0  0  0  0  0
    1.5248   -4.5599    0.8437 H   0  0  0  0  0  0  0  0  0  0  0  0
   -0.2023   -4.6957    2.5877 H   0  0  0  0  0  0  0  0  0  0  0  0
   -0.4744   -2.8765    2.4785 H   0  0  0  0  0  0  0  0  0  0  0  0
   -1.2133   -3.2440    0.0717 H   0  0  0  0  0  0  0  0  0  0  0  0
   -0.8879   -4.9797    0.2700 H   0  0  0  0  0  0  0  0  0  0  0  0
   -3.2790   -4.3950    0.5516 H   0  0  0  0  0  0  0  0  0  0  0  0
   -2.6179   -5.0907    2.0821 H   0  0  0  0  0  0  0  0  0  0  0  0
   -4.0510   -2.7058    1.8995 H   0  0  0  0  0  0  0  0  0  0  0  0
   -2.9779   -3.1451    3.2432 H   0  0  0  0  0  0  0  0  0  0  0  0
   -2.3701   -2.1100    1.9024 H   0  0  0  0  0  0  0  0  0  0  0  0
    0.2977    0.2974   -6.4379 H   0  0  0  0  0  0  0  0  0  0  0  0
    0.7920   -1.6862   -5.0901 H   0  0  0  0  0  0  0  0  0  0  0  0
   -0.9029   -1.3332   -4.6790 H   0  0  0  0  0  0  0  0  0  0  0  0
    1.6600   -0.3968   -3.3005 H   0  0  0  0  0  0  0  0  0  0  0  0
    0.7122   -1.7714   -2.7223 H   0  0  0  0  0  0  0  0  0  0  0  0
   -1.1481   -0.3087   -2.1088 H   0  0  0  0  0  0  0  0  0  0  0  0
   -0.3811    1.1561   -2.6770 H   0  0  0  0  0  0  0  0  0  0  0  0
    1.5830    0.6405   -1.1356 H   0  0  0  0  0  0  0  0  0  0  0  0
    0.5176   -0.7253   -0.5017 H   0  0  0  0  0  0  0  0  0  0  0  0
   -1.2578    0.9912   -0.0371 H   0  0  0  0  0  0  0  0  0  0  0  0
   -0.1652    2.2185   -0.7288 H   0  0  0  0  0  0  0  0  0  0  0  0
    1.3777    2.0709    1.1556 H   0  0  0  0  0  0  0  0  0  0  0  0
   -0.2727    2.3573    1.6830 H   0  0  0  0  0  0  0  0  0  0  0  0
   -0.4310   -0.0328    2.4825 H   0  0  0  0  0  0  0  0  0  0  0  0
    1.2380   -0.2749    1.8134 H   0  0  0  0  0  0  0  0  0  0  0  0
    2.2278    1.3292    3.1756 H   0  0  0  0  0  0  0  0  0  0  0  0
    0.7396    1.9921    3.7902 H   0  0  0  0  0  0  0  0  0  0  0  0
    1.7583    0.7154    5.4485 H   0  0  0  0  0  0  0  0  0  0  0  0
    2.2241   -0.6007    4.3978 H   0  0  0  0  0  0  0  0  0  0  0  0
    0.6842   -1.3692    5.9723 H   0  0  0  0  0  0  0  0  0  0  0  0
   -0.1920   -1.4499    4.4064 H   0  0  0  0  0  0  0  0  0  0  0  0
   -1.5346   -0.8598    6.3512 H   0  0  0  0  0  0  0  0  0  0  0  0
   -0.5700    0.5880    6.6589 H   0  0  0  0  0  0  0  0  0  0  0  0
   -1.2885    1.4792    4.3589 H   0  0  0  0  0  0  0  0  0  0  0  0
   -2.1990   -0.0516    4.1285 H   0  0  0  0  0  0  0  0  0  0  0  0
   -3.6654    0.4742    5.9760 H   0  0  0  0  0  0  0  0  0  0  0  0
   -3.6431    1.7557    4.7716 H   0  0  0  0  0  0  0  0  0  0  0  0
   -3.8418    2.4599    7.1007 H   0  0  0  0  0  0  0  0  0  0  0  0
   -2.2770    1.7912    7.5272 H   0  0  0  0  0  0  0  0  0  0  0  0
   -2.4011    4.3094    7.2643 H   0  0  0  0  0  0  0  0  0  0  0  0
   -2.9741    4.1174    5.6156 H   0  0  0  0  0  0  0  0  0  0  0  0
   -0.7271    3.5986    4.7577 H   0  0  0  0  0  0  0  0  0  0  0  0
   -0.7662    4.9992    5.7931 H   0  0  0  0  0  0  0  0  0  0  0  0
    0.7430    4.2323    7.1264 H   0  0  0  0  0  0  0  0  0  0  0  0
   -0.0985    2.7347    7.5112 H   0  0  0  0  0  0  0  0  0  0  0  0
    1.0342    2.8821    6.0389 H   0  0  0  0  0  0  0  0  0  0  0  0
    0.7675    6.2242   -3.8244 H   0  0  0  0  0  0  0  0  0  0  0  0
    1.9878    1.3546   -5.7657 H   0  0  0  0  0  0  0  0  0  0  0  0
   -5.4148   -0.7418   -6.2683 H   0  0  0  0  0  0  0  0  0  0  0  0
   -4.3814    1.2530   -2.5077 H   0  0  0  0  0  0  0  0  0  0  0  0
   -5.5764    1.0409   -4.6028 H   0  0  0  0  0  0  0  0  0  0  0  0
  1  2  1  0
  1 52  1  0
  2  3  1  0
  2 46  1  0
  3 47  1  0
  4  5  1  0
  4 53  1  0
 45  5  1  1
  6 45  1  0
  7 45  1  0
  8 45  1  0
  9 10  1  0
  9 47  1  0
  9 48  1  0
 10 11  1  0
 11 12  1  0
 12 13  1  0
 13 14  1  0
 14 15  1  0
 15 16  1  0
 16 17  1  0
 17 18  1  0
 18 19  1  0
 19 20  1  0
 20 21  1  0
 21 22  1  0
 22 23  1  0
 23 24  1  0
 24 25  1  0
 25 26  1  0
 27 28  1  0
 27 46  1  0
 27 49  1  0
 28 29  1  0
 29 30  1  0
 30 31  1  0
 31 32  1  0
 32 33  1  0
 33 34  1  0
 34 35  1  0
 35 36  1  0
 36 37  1  0
 37 38  1  0
 38 39  1  0
 39 40  1  0
 40 41  1  0
 41 42  1  0
 42 43  1  0
 43 44  1  0
 50 54  1  0
 51 54  1  0
 52 54  1  0
 53 54  1  0
  1 55  1  0
  1 56  1  0
  2 57  1  6
  3 58  1  0
  3 59  1  0
  4 60  1  0
  4 61  1  0
  5 62  1  0
  5 63  1  0
  6 64  1  0
  6 65  1  0
  6 66  1  0
  7 67  1  0
  7 68  1  0
  7 69  1  0
  8 70  1  0
  8 71  1  0
  8 72  1  0
  9 73  1  0
 10 74  1  0
 10 75  1  0
 11 76  1  0
 11 77  1  0
 12 78  1  0
 12 79  1  0
 13 80  1  0
 13 81  1  0
 14 82  1  0
 14 83  1  0
 15 84  1  0
 15 85  1  0
 16 86  1  0
 16 87  1  0
 17 88  1  0
 17 89  1  0
 18 90  1  0
 18 91  1  0
 19 92  1  0
 19 93  1  0
 20 94  1  0
 20 95  1  0
 21 96  1  0
 21 97  1  0
 22 98  1  0
 22 99  1  0
 23100  1  0
 23101  1  0
 24102  1  0
 24103  1  0
 25104  1  0
 25105  1  0
 26106  1  0
 26107  1  0
 26108  1  0
 27109  1  6
 28110  1  0
 28111  1  0
 29112  1  0
 29113  1  0
 30114  1  0
 30115  1  0
 31116  1  0
 31117  1  0
 32118  1  0
 32119  1  0
 33120  1  0
 33121  1  0
 34122  1  0
 34123  1  0
 35124  1  0
 35125  1  0
 36126  1  0
 36127  1  0
 37128  1  0
 37129  1  0
 38130  1  0
 38131  1  0
 39132  1  0
 39133  1  0
 40134  1  0
 40135  1  0
 41136  1  0
 41137  1  0
 42138  1  0
 42139  1  0
 43140  1  0
 43141  1  0
 44142  1  0
 44143  1  0
 44144  1  0
 48145  1  0
 49146  1  0
 50147  1  0
 51148  1  0
 54149  1  0
M  CHG  1  45   1
M  END
$$$$
PHOSPHATIDYLCHOLINE TRANSFER PROTEIN
     RDKit          3D

149148  0  0  0  0  0  0  0  0999 V2000
   -3.8414    0.2558    0.2341 C   0  0  0  0  0  0  0  0  0  0  0  0
   -2.8770   -0.5599   -0.7095 C   0  0  1  0  0  0  0  0  0  0  0  0
   -1.5067   -0.0441   -0.5759 C   0  0  0  0  0  0  0  0  0  0  0  0
   -5.7179    3.0510   -2.8958 C   0  0  0  0  0  0  0  0  0  0  0  0
   -5.4157    2.8982   -4.3796 C   0  0  0  0  0  0  0  0  0  0  0  0
   -3.9746    1.4408   -5.5204 C   0  0  0  0  0  0  0  0  0  0  0  0
   -3.2342    2.3455   -3.5164 C   0  0  0  0  0  0  0  0  0  0  0  0
   -3.4562    3.7092   -5.4560 C   0  0  0  0  0  0  0  0  0  0  0  0
    0.2341    0.4257    0.8598 C   0  0  0  0  0  0  0  0  0  0  0  0
    0.6396    1.4563    1.8297 C   0  0  0  0  0  0  0  0  0  0  0  0
    0.1544    2.8394    1.7133 C   0  0  0  0  0  0  0  0  0  0  0  0
   -1.2948    3.1058    1.7218 C   0  0  0  0  0  0  0  0  0  0  0  0
   -1.5033    4.6249    1.6009 C   0  0  0  0  0  0  0  0  0  0  0  0
   -0.8268    5.1679    0.3488 C   0  0  0  0  0  0  0  0  0  0  0  0
   -1.3842    4.4671   -0.8369 C   0  0  0  0  0  0  0  0  0  0  0  0
   -0.7045    4.8898   -2.1372 C   0  0  0  0  0  0  0  0  0  0  0  0
    0.7623    4.5756   -2.0973 C   0  0  0  0  0  0  0  0  0  0  0  0
    1.4257    4.9495   -3.3920 C   0  0  0  0  0  0  0  0  0  0  0  0
    2.9446    4.5985   -3.2923 C   0  0  0  0  0  0  0  0  0  0  0  0
    3.6535    4.9296   -4.5402 C   0  0  0  0  0  0  0  0  0  0  0  0
    5.0849    4.5649   -4.5759 C   0  0  0  0  0  0  0  0  0  0  0  0
    6.0867    5.1227   -3.6754 C   0  0  0  0  0  0  0  0  0  0  0  0
    6.0407    4.8989   -2.2129 C   0  0  0  0  0  0  0  0  0  0  0  0
    7.2812    5.5815   -1.5492 C   0  0  0  0  0  0  0  0  0  0  0  0
    7.2692    5.3735   -0.0688 C   0  0  0  0  0  0  0  0  0  0  0  0
    6.0447    5.9406    0.6134 C   0  0  0  0  0  0  0  0  0  0  0  0
   -4.0113   -2.5354   -0.8127 C   0  0  1  0  0  0  0  0  0  0  0  0
   -4.8066   -3.3675    0.1313 C   0  0  0  0  0  0  0  0  0  0  0  0
   -4.0130   -4.5310    0.7309 C   0  0  0  0  0  0  0  0  0  0  0  0
   -4.8844   -5.1835    1.7573 C   0  0  0  0  0  0  0  0  0  0  0  0
   -5.0991   -4.4130    3.0013 C   0  0  0  0  0  0  0  0  0  0  0  0
   -4.0240   -4.3599    4.0165 C   0  0  0  0  0  0  0  0  0  0  0  0
   -2.6676   -3.9516    3.5995 C   0  0  0  0  0  0  0  0  0  0  0  0
   -1.7217   -3.9102    4.8254 C   0  0  0  0  0  0  0  0  0  0  0  0
   -0.3436   -3.5400    4.3542 C   0  0  0  0  0  0  0  0  0  0  0  0
    0.2646   -4.4902    3.3783 C   0  0  0  0  0  0  0  0  0  0  0  0
    1.6525   -4.1139    2.9613 C   0  0  0  0  0  0  0  0  0  0  0  0
    2.6642   -4.0945    4.0623 C   0  0  0  0  0  0  0  0  0  0  0  0
    2.8234   -5.4745    4.6956 C   0  0  0  0  0  0  0  0  0  0  0  0
    3.2407   -6.4840    3.6462 C   0  0  0  0  0  0  0  0  0  0  0  0
    4.5309   -6.1621    2.9637 C   0  0  0  0  0  0  0  0  0  0  0  0
    4.8537   -7.2039    1.8955 C   0  0  0  0  0  0  0  0  0  0  0  0
    6.1510   -6.8924    1.1846 C   0  0  0  0  0  0  0  0  0  0  0  0
    6.0892   -5.5539    0.5067 C   0  0  0  0  0  0  0  0  0  0  0  0
   -4.0485    2.6313   -4.6796 N   0  0  2  0  0  0  0  0  0  0  0  0
   -2.9645   -1.8609   -0.1586 O   0  0  0  0  0  0  0  0  0  0  0  0
   -1.0832    0.0841    0.7488 O   0  0  0  0  0  0  0  0  0  0  0  0
    0.8810   -0.7743    1.3074 O   0  0  0  0  0  0  0  0  0  0  0  0
   -3.4188   -3.4601   -1.7214 O   0  0  0  0  0  0  0  0  0  0  0  0
   -6.5248    1.9210    0.7794 O   0  0  0  0  0  0  0  0  0  0  0  0
   -5.9827    0.6140   -1.5423 O   0  0  0  0  0  0  0  0  0  0  0  0
   -3.9179    1.5564   -0.2718 O   0  0  0  0  0  0  0  0  0  0  0  0
   -5.3777    1.8727   -2.2567 O   0  0  0  0  0  0  0  0  0  0  0  0
   -5.5399    1.9440   -0.5772 P   0  0  0  0  0  0  0  0  0  0  0  0
   -4.8140   -0.2569    0.3115 H   0  0  0  0  0  0  0  0  0  0  0  0
   -3.4053    0.3170    1.2445 H   0  0  0  0  0  0  0  0  0  0  0  0
   -3.4185   -0.4558   -1.6610 H   0  0  0  0  0  0  0  0  0  0  0  0
   -0.8019   -0.6840   -1.1618 H   0  0  0  0  0  0  0  0  0  0  0  0
   -1.4280    0.9655   -1.0633 H   0  0  0  0  0  0  0  0  0  0  0  0
   -6.8356    3.1658   -2.7801 H   0  0  0  0  0  0  0  0  0  0  0  0
   -5.2918    3.9500   -2.4546 H   0  0  0  0  0  0  0  0  0  0  0  0
   -5.7048    3.8551   -4.8865 H   0  0  0  0  0  0  0  0  0  0  0  0
   -6.0507    2.0798   -4.8062 H   0  0  0  0  0  0  0  0  0  0  0  0
   -4.5165    1.5537   -6.4738 H   0  0  0  0  0  0  0  0  0  0  0  0
   -4.4412    0.5513   -5.0019 H   0  0  0  0  0  0  0  0  0  0  0  0
   -2.9208    1.1441   -5.7288 H   0  0  0  0  0  0  0  0  0  0  0  0
   -3.4175    1.2742   -3.2809 H   0  0  0  0  0  0  0  0  0  0  0  0
   -2.1702    2.3904   -3.8923 H   0  0  0  0  0  0  0  0  0  0  0  0
   -3.3977    3.0092   -2.6688 H   0  0  0  0  0  0  0  0  0  0  0  0
   -3.8860    4.6904   -5.1880 H   0  0  0  0  0  0  0  0  0  0  0  0
   -3.6391    3.5052   -6.5145 H   0  0  0  0  0  0  0  0  0  0  0  0
   -2.3565    3.7005   -5.2738 H   0  0  0  0  0  0  0  0  0  0  0  0
    0.7172    0.5608   -0.1606 H   0  0  0  0  0  0  0  0  0  0  0  0
    1.7732    1.4862    1.7997 H   0  0  0  0  0  0  0  0  0  0  0  0
    0.4561    1.0216    2.8641 H   0  0  0  0  0  0  0  0  0  0  0  0
    0.6371    3.3365    0.8149 H   0  0  0  0  0  0  0  0  0  0  0  0
    0.6026    3.4259    2.5756 H   0  0  0  0  0  0  0  0  0  0  0  0
   -1.8901    2.5291    1.0306 H   0  0  0  0  0  0  0  0  0  0  0  0
   -1.7181    2.8757    2.7483 H   0  0  0  0  0  0  0  0  0  0  0  0
   -1.0780    5.0890    2.5096 H   0  0  0  0  0  0  0  0  0  0  0  0
   -2.5755    4.8544    1.6023 H   0  0  0  0  0  0  0  0  0  0  0  0
    0.2491    5.2414    0.4427 H   0  0  0  0  0  0  0  0  0  0  0  0
   -1.1631    6.2645    0.3282 H   0  0  0  0  0  0  0  0  0  0  0  0
   -1.4136    3.3712   -0.7511 H   0  0  0  0  0  0  0  0  0  0  0  0
   -2.4662    4.7757   -0.9407 H   0  0  0  0  0  0  0  0  0  0  0  0
   -0.9091    5.9629   -2.3155 H   0  0  0  0  0  0  0  0  0  0  0  0
   -1.1977    4.3353   -2.9507 H   0  0  0  0  0  0  0  0  0  0  0  0
    0.8656    3.4524   -2.0157 H   0  0  0  0  0  0  0  0  0  0  0  0
    1.2962    4.9609   -1.2210 H   0  0  0  0  0  0  0  0  0  0  0  0
    1.3165    6.0148   -3.6324 H   0  0  0  0  0  0  0  0  0  0  0  0
    1.0452    4.3574   -4.2403 H   0  0  0  0  0  0  0  0  0  0  0  0
    3.0724    3.5534   -2.9921 H   0  0  0  0  0  0  0  0  0  0  0  0
    3.2579    5.3006   -2.4868 H   0  0  0  0  0  0  0  0  0  0  0  0
    3.5325    6.0190   -4.8137 H   0  0  0  0  0  0  0  0  0  0  0  0
    3.1342    4.4035   -5.4103 H   0  0  0  0  0  0  0  0  0  0  0  0
    5.4515    4.5830   -5.6670 H   0  0  0  0  0  0  0  0  0  0  0  0
    5.0885    3.4107   -4.4074 H   0  0  0  0  0  0  0  0  0  0  0  0
    6.1331    6.2524   -3.9052 H   0  0  0  0  0  0  0  0  0  0  0  0
    7.1038    4.7549   -4.0391 H   0  0  0  0  0  0  0  0  0  0  0  0
    5.1989    5.3521   -1.6757 H   0  0  0  0  0  0  0  0  0  0  0  0
    6.1967    3.8271   -1.9579 H   0  0  0  0  0  0  0  0  0  0  0  0
    8.1383    5.0995   -2.0401 H   0  0  0  0  0  0  0  0  0  0  0  0
    7.2137    6.6676   -1.7463 H   0  0  0  0  0  0  0  0  0  0  0  0
    7.3429    4.3274    0.2453 H   0  0  0  0  0  0  0  0  0  0  0  0
    8.1421    5.9284    0.3410 H   0  0  0  0  0  0  0  0  0  0  0  0
    6.2097    5.7537    1.7180 H   0  0  0  0  0  0  0  0  0  0  0  0
    6.0151    7.0483    0.5224 H   0  0  0  0  0  0  0  0  0  0  0  0
    5.1062    5.4425    0.3545 H   0  0  0  0  0  0  0  0  0  0  0  0
   -4.5386   -1.8433   -1.4573 H   0  0  0  0  0  0  0  0  0  0  0  0
   -5.6145   -3.8750   -0.4794 H   0  0  0  0  0  0  0  0  0  0  0  0
   -5.3424   -2.7987    0.8947 H   0  0  0  0  0  0  0  0  0  0  0  0
   -3.0657   -4.2107    1.1078 H   0  0  0  0  0  0  0  0  0  0  0  0
   -3.9039   -5.2659   -0.1241 H   0  0  0  0  0  0  0  0  0  0  0  0
   -5.8773   -5.4888    1.2833 H   0  0  0  0  0  0  0  0  0  0  0  0
   -4.4378   -6.1810    2.0437 H   0  0  0  0  0  0  0  0  0  0  0  0
   -6.0391   -4.8649    3.4896 H   0  0  0  0  0  0  0  0  0  0  0  0
   -5.4390   -3.3693    2.7701 H   0  0  0  0  0  0  0  0  0  0  0  0
   -3.9672   -5.3172    4.6159 H   0  0  0  0  0  0  0  0  0  0  0  0
   -4.3570   -3.5745    4.7929 H   0  0  0  0  0  0  0  0  0  0  0  0
   -2.5588   -2.9997    3.0897 H   0  0  0  0  0  0  0  0  0  0  0  0
   -2.2075   -4.7657    2.9728 H   0  0  0  0  0  0  0  0  0  0  0  0
   -1.7367   -4.8862    5.3267 H   0  0  0  0  0  0  0  0  0  0  0  0
   -2.0874   -3.1294    5.5114 H   0  0  0  0  0  0  0  0  0  0  0  0
   -0.3634   -2.5337    3.8239 H   0  0  0  0  0  0  0  0  0  0  0  0
    0.3388   -3.3421    5.2195 H   0  0  0  0  0  0  0  0  0  0  0  0
    0.3130   -5.5423    3.7897 H   0  0  0  0  0  0  0  0  0  0  0  0
   -0.3470   -4.4744    2.4325 H   0  0  0  0  0  0  0  0  0  0  0  0
    1.9575   -4.8805    2.1897 H   0  0  0  0  0  0  0  0  0  0  0  0
    1.6713   -3.1328    2.4534 H   0  0  0  0  0  0  0  0  0  0  0  0
    2.3830   -3.4070    4.8872 H   0  0  0  0  0  0  0  0  0  0  0  0
    3.6461   -3.7455    3.6978 H   0  0  0  0  0  0  0  0  0  0  0  0
    1.8570   -5.8056    5.1037 H   0  0  0  0  0  0  0  0  0  0  0  0
    3.6347   -5.4014    5.4297 H   0  0  0  0  0  0  0  0  0  0  0  0
    2.4161   -6.7171    2.9440 H   0  0  0  0  0  0  0  0  0  0  0  0
    3.4197   -7.4357    4.2218 H   0  0  0  0  0  0  0  0  0  0  0  0
    4.5471   -5.1526    2.5378 H   0  0  0  0  0  0  0  0  0  0  0  0
    5.3802   -6.2035    3.7038 H   0  0  0  0  0  0  0  0  0  0  0  0
    4.0164   -7.2438    1.1400 H   0  0  0  0  0  0  0  0  0  0  0  0
    4.9145   -8.2144    2.3445 H   0  0  0  0  0  0  0  0  0  0  0  0
    6.3166   -7.6699    0.3869 H   0  0  0  0  0  0  0  0  0  0  0  0
    7.0082   -6.9964    1.8969 H   0  0  0  0  0  0  0  0  0  0  0  0
    6.7730   -4.8415    1.0092 H   0  0  0  0  0  0  0  0  0  0  0  0
    6.3544   -5.6715   -0.5789 H   0  0  0  0  0  0  0  0  0  0  0  0
    5.0670   -5.1497    0.5755 H   0  0  0  0  0  0  0  0  0  0  0  0
    0.2520   -1.4910    1.4784 H   0  0  0  0  0  0  0  0  0  0  0  0
   -4.2078   -4.0017   -2.0501 H   0  0  0  0  0  0  0  0  0  0  0  0
   -7.3257    1.3521    0.5598 H   0  0  0  0  0  0  0  0  0  0  0  0
   -6.5239    0.0028   -0.9479 H   0  0  0  0  0  0  0  0  0  0  0  0
   -6.0780    3.1972   -0.3527 H   0  0  0  0  0  0  0  0  0  0  0  0
  1  2  1  0
  1 52  1  0
  2  3  1  0
  2 46  1  0
  3 47  1  0
  4  5  1  0
  4 53  1  0
 45  5  1  1
  6 45  1  0
  7 45  1  0
  8 45  1  0
  9 10  1  0
  9 47  1  0
  9 48  1  0
 10 11  1  0
 11 12  1  0
 12 13  1  0
 13 14  1  0
 14 15  1  0
 15 16  1  0
 16 17  1  0
 17 18  1  0
 18 19  1  0
 19 20  1  0
 20 21  1  0
 21 22  1  0
 22 23  1  0
 23 24  1  0
 24 25  1  0
 25 26  1  0
 27 28  1  0
 27 46  1  0
 27 49  1  0
 28 29  1  0
 29 30  1  0
 30 31  1  0
 31 32  1  0
 32 33  1  0
 33 34  1  0
 34 35  1  0
 35 36  1  0
 36 37  1  0
 37 38  1  0
 38 39  1  0
 39 40  1  0
 40 41  1  0
 41 42  1  0
 42 43  1  0
 43 44  1  0
 50 54  1  0
 51 54  1  0
 52 54  1  0
 53 54  1  0
  1 55  1  0
  1 56  1  0
  2 57  1  6
  3 58  1  0
  3 59  1  0
  4 60  1  0
  4 61  1  0
  5 62  1  0
  5 63  1  0
  6 64  1  0
  6 65  1  0
  6 66  1  0
  7 67  1  0
  7 68  1  0
  7 69  1  0
  8 70  1  0
  8 71  1  0
  8 72  1  0
  9 73  1  0
 10 74  1  0
 10 75  1  0
 11 76  1  0
 11 77  1  0
 12 78  1  0
 12 79  1  0
 13 80  1  0
 13 81  1  0
 14 82  1  0
 14 83  1  0
 15 84  1  0
 15 85  1  0
 16 86  1  0
 16 87  1  0
 17 88  1  0
 17 89  1  0
 18 90  1  0
 18 91  1  0
 19 92  1  0
 19 93  1  0
 20 94  1  0
 20 95  1  0
 21 96  1  0
 21 97  1  0
 22 98  1  0
 22 99  1  0
 23100  1  0
 23101  1  0
 24102  1  0
 24103  1  0
 25104  1  0
 25105  1  0
 26106  1  0
 26107  1  0
 26108  1  0
 27109  1  6
 28110  1  0
 28111  1  0
 29112  1  0
 29113  1  0
 30114  1  0
 30115  1  0
 31116  1  0
 31117  1  0
 32118  1  0
 32119  1  0
 33120  1  0
 33121  1  0
 34122  1  0
 34123  1  0
 35124  1  0
 35125  1  0
 36126  1  0
 36127  1  0
 37128  1  0
 37129  1  0
 38130  1  0
 38131  1  0
 39132  1  0
 39133  1  0
 40134  1  0
 40135  1  0
 41136  1  0
 41137  1  0
 42138  1  0
 42139  1  0
 43140  1  0
 43141  1  0
 44142  1  0
 44143  1  0
 44144  1  0
 48145  1  0
 49146  1  0
 50147  1  0
 51148  1  0
 54149  1  0
M  CHG  1  45   1
M  END
$$$$
PHOSPHATIDYLCHOLINE TRANSFER PROTEIN
     RDKit          3D

149148  0  0  0  0  0  0  0  0999 V2000
    0.4434    0.7838    1.0026 C   0  0  0  0  0  0  0  0  0  0  0  0
    0.2479    1.9335    0.0021 C   0  0  1  0  0  0  0  0  0  0  0  0
    0.3272    3.2960    0.7036 C   0  0  0  0  0  0  0  0  0  0  0  0
    0.2226   -2.8403    3.4187 C   0  0  0  0  0  0  0  0  0  0  0  0
   -0.0696   -4.1695    4.0660 C   0  0  0  0  0  0  0  0  0  0  0  0
    1.7753   -5.4976    3.3077 C   0  0  0  0  0  0  0  0  0  0  0  0
    0.5662   -6.0815    5.2066 C   0  0  0  0  0  0  0  0  0  0  0  0
    1.9884   -4.2596    5.3391 C   0  0  0  0  0  0  0  0  0  0  0  0
    0.6057    5.5558    0.1606 C   0  0  0  0  0  0  0  0  0  0  0  0
    0.0652    6.5672   -0.7567 C   0  0  0  0  0  0  0  0  0  0  0  0
   -1.3699    6.6465   -1.0617 C   0  0  0  0  0  0  0  0  0  0  0  0
   -2.3247    7.0667   -0.0483 C   0  0  0  0  0  0  0  0  0  0  0  0
   -2.6537    6.3874    1.1904 C   0  0  0  0  0  0  0  0  0  0  0  0
   -3.2957    5.0414    1.1307 C   0  0  0  0  0  0  0  0  0  0  0  0
   -3.6178    4.6852    2.5932 C   0  0  0  0  0  0  0  0  0  0  0  0
   -4.3276    3.3648    2.7160 C   0  0  0  0  0  0  0  0  0  0  0  0
   -3.5267    2.1847    2.2475 C   0  0  0  0  0  0  0  0  0  0  0  0
   -4.3540    0.9319    2.3765 C   0  0  0  0  0  0  0  0  0  0  0  0
   -5.6071    0.9852    1.5398 C   0  0  0  0  0  0  0  0  0  0  0  0
   -5.2565    1.1539    0.0813 C   0  0  0  0  0  0  0  0  0  0  0  0
   -6.5281    1.2051   -0.7444 C   0  0  0  0  0  0  0  0  0  0  0  0
   -6.2023    1.3687   -2.2205 C   0  0  0  0  0  0  0  0  0  0  0  0
   -5.4276    2.6275   -2.4905 C   0  0  0  0  0  0  0  0  0  0  0  0
   -5.0896    2.7946   -3.9716 C   0  0  0  0  0  0  0  0  0  0  0  0
   -4.3093    4.0872   -4.0972 C   0  0  0  0  0  0  0  0  0  0  0  0
   -3.9090    4.3530   -5.5440 C   0  0  0  0  0  0  0  0  0  0  0  0
    0.9685    1.5960   -2.1498 C   0  0  1  0  0  0  0  0  0  0  0  0
    1.8875    0.6460   -2.8201 C   0  0  0  0  0  0  0  0  0  0  0  0
    1.4353    0.3116   -4.2280 C   0  0  0  0  0  0  0  0  0  0  0  0
    2.4111   -0.5760   -4.9134 C   0  0  0  0  0  0  0  0  0  0  0  0
    2.7239   -1.8714   -4.1807 C   0  0  0  0  0  0  0  0  0  0  0  0
    3.6734   -2.7293   -4.9656 C   0  0  0  0  0  0  0  0  0  0  0  0
    4.1098   -3.9490   -4.3006 C   0  0  0  0  0  0  0  0  0  0  0  0
    3.2414   -5.0343   -3.8634 C   0  0  0  0  0  0  0  0  0  0  0  0
    2.1811   -4.8563   -2.8750 C   0  0  0  0  0  0  0  0  0  0  0  0
    2.5764   -4.3138   -1.5409 C   0  0  0  0  0  0  0  0  0  0  0  0
    3.5284   -5.0679   -0.7315 C   0  0  0  0  0  0  0  0  0  0  0  0
    3.8438   -4.3285    0.5963 C   0  0  0  0  0  0  0  0  0  0  0  0
    4.4883   -3.0208    0.3731 C   0  0  0  0  0  0  0  0  0  0  0  0
    4.9032   -2.1454    1.4696 C   0  0  0  0  0  0  0  0  0  0  0  0
    5.9696   -2.5186    2.4173 C   0  0  0  0  0  0  0  0  0  0  0  0
    5.7238   -3.7458    3.2053 C   0  0  0  0  0  0  0  0  0  0  0  0
    6.8454   -3.9798    4.2398 C   0  0  0  0  0  0  0  0  0  0  0  0
    6.9632   -2.8535    5.2096 C   0  0  0  0  0  0  0  0  0  0  0  0
    1.0791   -4.9209    4.4577 N   0  0  2  0  0  0  0  0  0  0  0  0
    1.3968    1.8417   -0.8400 O   0  0  0  0  0  0  0  0  0  0  0  0
    0.4498    4.2719   -0.2517 O   0  0  0  0  0  0  0  0  0  0  0  0
    2.0763    5.8100    0.0624 O   0  0  0  0  0  0  0  0  0  0  0  0
    1.1764    2.8434   -2.8609 O   0  0  0  0  0  0  0  0  0  0  0  0
   -1.5922   -0.1799    4.2253 O   0  0  0  0  0  0  0  0  0  0  0  0
   -1.6657   -1.6549    1.8477 O   0  0  0  0  0  0  0  0  0  0  0  0
   -0.5738    0.7297    1.8989 O   0  0  0  0  0  0  0  0  0  0  0  0
   -1.0242   -2.2779    3.1153 O   0  0  0  0  0  0  0  0  0  0  0  0
   -0.7329   -0.6323    2.8229 P   0  0  0  0  0  0  0  0  0  0  0  0
    0.4826   -0.1294    0.4119 H   0  0  0  0  0  0  0  0  0  0  0  0
    1.3862    1.0311    1.5408 H   0  0  0  0  0  0  0  0  0  0  0  0
   -0.6457    1.8494   -0.5798 H   0  0  0  0  0  0  0  0  0  0  0  0
   -0.5550    3.4468    1.3129 H   0  0  0  0  0  0  0  0  0  0  0  0
    1.2424    3.2652    1.3425 H   0  0  0  0  0  0  0  0  0  0  0  0
    0.6616   -2.1637    4.1796 H   0  0  0  0  0  0  0  0  0  0  0  0
    0.9031   -2.9093    2.5730 H   0  0  0  0  0  0  0  0  0  0  0  0
   -0.6747   -4.8200    3.4035 H   0  0  0  0  0  0  0  0  0  0  0  0
   -0.6866   -4.0300    4.9939 H   0  0  0  0  0  0  0  0  0  0  0  0
    1.2063   -5.2890    2.3704 H   0  0  0  0  0  0  0  0  0  0  0  0
    2.7821   -5.0768    3.2048 H   0  0  0  0  0  0  0  0  0  0  0  0
    1.8793   -6.5970    3.3680 H   0  0  0  0  0  0  0  0  0  0  0  0
    0.5769   -5.8547    6.2965 H   0  0  0  0  0  0  0  0  0  0  0  0
   -0.4464   -6.3154    4.8479 H   0  0  0  0  0  0  0  0  0  0  0  0
    1.1911   -6.9841    5.0000 H   0  0  0  0  0  0  0  0  0  0  0  0
    2.0210   -3.1737    5.2667 H   0  0  0  0  0  0  0  0  0  0  0  0
    3.0204   -4.6383    5.0789 H   0  0  0  0  0  0  0  0  0  0  0  0
    1.8604   -4.5794    6.4110 H   0  0  0  0  0  0  0  0  0  0  0  0
    0.4272    5.7637    1.2195 H   0  0  0  0  0  0  0  0  0  0  0  0
    0.4375    7.6163   -0.4619 H   0  0  0  0  0  0  0  0  0  0  0  0
    0.6684    6.4540   -1.7450 H   0  0  0  0  0  0  0  0  0  0  0  0
   -1.4739    7.3909   -1.9294 H   0  0  0  0  0  0  0  0  0  0  0  0
   -1.6448    5.6769   -1.5754 H   0  0  0  0  0  0  0  0  0  0  0  0
   -3.3289    7.3937   -0.5432 H   0  0  0  0  0  0  0  0  0  0  0  0
   -1.9699    8.1289    0.2765 H   0  0  0  0  0  0  0  0  0  0  0  0
   -1.8087    6.3329    1.9340 H   0  0  0  0  0  0  0  0  0  0  0  0
   -3.4021    7.0426    1.7467 H   0  0  0  0  0  0  0  0  0  0  0  0
   -2.7037    4.2244    0.7314 H   0  0  0  0  0  0  0  0  0  0  0  0
   -4.2964    5.0966    0.6443 H   0  0  0  0  0  0  0  0  0  0  0  0
   -4.1136    5.4997    3.1180 H   0  0  0  0  0  0  0  0  0  0  0  0
   -2.6011    4.5210    3.0538 H   0  0  0  0  0  0  0  0  0  0  0  0
   -5.2331    3.4123    2.0673 H   0  0  0  0  0  0  0  0  0  0  0  0
   -4.6071    3.2646    3.7862 H   0  0  0  0  0  0  0  0  0  0  0  0
   -3.1539    2.2551    1.2145 H   0  0  0  0  0  0  0  0  0  0  0  0
   -2.6457    2.0209    2.9450 H   0  0  0  0  0  0  0  0  0  0  0  0
   -3.8151    0.0242    2.0751 H   0  0  0  0  0  0  0  0  0  0  0  0
   -4.6127    0.8152    3.4576 H   0  0  0  0  0  0  0  0  0  0  0  0
   -6.1254   -0.0160    1.6687 H   0  0  0  0  0  0  0  0  0  0  0  0
   -6.3270    1.7550    1.8186 H   0  0  0  0  0  0  0  0  0  0  0  0
   -4.5966    0.3349   -0.2228 H   0  0  0  0  0  0  0  0  0  0  0  0
   -4.6825    2.1068   -0.0310 H   0  0  0  0  0  0  0  0  0  0  0  0
   -7.1647    2.0320   -0.4069 H   0  0  0  0  0  0  0  0  0  0  0  0
   -7.0398    0.2458   -0.6258 H   0  0  0  0  0  0  0  0  0  0  0  0
   -5.6165    0.4886   -2.5793 H   0  0  0  0  0  0  0  0  0  0  0  0
   -7.1641    1.3700   -2.7559 H   0  0  0  0  0  0  0  0  0  0  0  0
   -6.0473    3.4950   -2.1913 H   0  0  0  0  0  0  0  0  0  0  0  0
   -4.4489    2.6083   -1.9741 H   0  0  0  0  0  0  0  0  0  0  0  0
   -6.0319    2.8462   -4.5270 H   0  0  0  0  0  0  0  0  0  0  0  0
   -4.4775    1.9226   -4.2794 H   0  0  0  0  0  0  0  0  0  0  0  0
   -3.3783    4.0602   -3.4984 H   0  0  0  0  0  0  0  0  0  0  0  0
   -4.9548    4.9193   -3.7575 H   0  0  0  0  0  0  0  0  0  0  0  0
   -3.6902    3.4043   -6.0805 H   0  0  0  0  0  0  0  0  0  0  0  0
   -2.9561    4.9405   -5.5490 H   0  0  0  0  0  0  0  0  0  0  0  0
   -4.7053    4.8828   -6.0756 H   0  0  0  0  0  0  0  0  0  0  0  0
   -0.0896    1.4175   -2.2567 H   0  0  0  0  0  0  0  0  0  0  0  0
    2.9253    1.0511   -2.9270 H   0  0  0  0  0  0  0  0  0  0  0  0
    2.0119   -0.3053   -2.2291 H   0  0  0  0  0  0  0  0  0  0  0  0
    1.3943    1.2593   -4.8046 H   0  0  0  0  0  0  0  0  0  0  0  0
    0.3951   -0.0789   -4.2392 H   0  0  0  0  0  0  0  0  0  0  0  0
    3.3521    0.0280   -5.0360 H   0  0  0  0  0  0  0  0  0  0  0  0
    2.0853   -0.8395   -5.9223 H   0  0  0  0  0  0  0  0  0  0  0  0
    1.8094   -2.3672   -3.8568 H   0  0  0  0  0  0  0  0  0  0  0  0
    3.2462   -1.5230   -3.2354 H   0  0  0  0  0  0  0  0  0  0  0  0
    4.5736   -2.0447   -5.1405 H   0  0  0  0  0  0  0  0  0  0  0  0
    3.3105   -2.8754   -6.0205 H   0  0  0  0  0  0  0  0  0  0  0  0
    4.8550   -4.4504   -5.0344 H   0  0  0  0  0  0  0  0  0  0  0  0
    4.8548   -3.6261   -3.4978 H   0  0  0  0  0  0  0  0  0  0  0  0
    2.7117   -5.3934   -4.8162 H   0  0  0  0  0  0  0  0  0  0  0  0
    3.8986   -5.9321   -3.6632 H   0  0  0  0  0  0  0  0  0  0  0  0
    1.8416   -5.9426   -2.6262 H   0  0  0  0  0  0  0  0  0  0  0  0
    1.2727   -4.4317   -3.2749 H   0  0  0  0  0  0  0  0  0  0  0  0
    1.6362   -4.2118   -0.9156 H   0  0  0  0  0  0  0  0  0  0  0  0
    2.8869   -3.2675   -1.6902 H   0  0  0  0  0  0  0  0  0  0  0  0
    4.5124   -5.2981   -1.1689 H   0  0  0  0  0  0  0  0  0  0  0  0
    3.1163   -6.0636   -0.4226 H   0  0  0  0  0  0  0  0  0  0  0  0
    4.2434   -5.0377    1.2931 H   0  0  0  0  0  0  0  0  0  0  0  0
    2.8039   -4.0802    1.0298 H   0  0  0  0  0  0  0  0  0  0  0  0
    5.3265   -3.1039   -0.3956 H   0  0  0  0  0  0  0  0  0  0  0  0
    3.7261   -2.4068   -0.2354 H   0  0  0  0  0  0  0  0  0  0  0  0
    3.9590   -1.8171    2.0353 H   0  0  0  0  0  0  0  0  0  0  0  0
    5.1903   -1.1089    1.0174 H   0  0  0  0  0  0  0  0  0  0  0  0
    6.1359   -1.6472    3.1195 H   0  0  0  0  0  0  0  0  0  0  0  0
    6.9676   -2.6442    1.8548 H   0  0  0  0  0  0  0  0  0  0  0  0
    4.7467   -3.7794    3.6560 H   0  0  0  0  0  0  0  0  0  0  0  0
    5.9191   -4.6180    2.5002 H   0  0  0  0  0  0  0  0  0  0  0  0
    7.7975   -4.1622    3.7433 H   0  0  0  0  0  0  0  0  0  0  0  0
    6.5620   -4.9162    4.7523 H   0  0  0  0  0  0  0  0  0  0  0  0
    6.8282   -3.2643    6.2481 H   0  0  0  0  0  0  0  0  0  0  0  0
    6.1696   -2.0844    5.1066 H   0  0  0  0  0  0  0  0  0  0  0  0
    7.9833   -2.4289    5.1614 H   0  0  0  0  0  0  0  0  0  0  0  0
    2.4577    4.9545    0.4116 H   0  0  0  0  0  0  0  0  0  0  0  0
    2.0766    3.1843   -2.6238 H   0  0  0  0  0  0  0  0  0  0  0  0
   -2.5385   -0.5164    4.1838 H   0  0  0  0  0  0  0  0  0  0  0  0
   -2.0021   -1.1903    1.0236 H   0  0  0  0  0  0  0  0  0  0  0  0
   -0.6661    0.7011    3.2538 H   0  0  0  0  0  0  0  0  0  0  0  0
  1  2  1  0
  1 52  1  0
  2  3  1  0
  2 46  1  0
  3 47  1  0
  4  5  1  0
  4 53  1  0
 45  5  1  6
  6 45  1  0
  7 45  1  0
  8 45  1  0
  9 10  1  0
  9 47  1  0
  9 48  1  0
 10 11  1  0
 11 12  1  0
 12 13  1  0
 13 14  1  0
 14 15  1  0
 15 16  1  0
 16 17  1  0
 17 18  1  0
 18 19  1  0
 19 20  1  0
 20 21  1  0
 21 22  1  0
 22 23  1  0
 23 24  1  0
 24 25  1  0
 25 26  1  0
 27 28  1  0
 27 46  1  0
 27 49  1  0
 28 29  1  0
 29 30  1  0
 30 31  1  0
 31 32  1  0
 32 33  1  0
 33 34  1  0
 34 35  1  0
 35 36  1  0
 36 37  1  0
 37 38  1  0
 38 39  1  0
 39 40  1  0
 40 41  1  0
 41 42  1  0
 42 43  1  0
 43 44  1  0
 50 54  1  0
 51 54  1  0
 52 54  1  0
 53 54  1  0
  1 55  1  0
  1 56  1  0
  2 57  1  6
  3 58  1  0
  3 59  1  0
  4 60  1  0
  4 61  1  0
  5 62  1  0
  5 63  1  0
  6 64  1  0
  6 65  1  0
  6 66  1  0
  7 67  1  0
  7 68  1  0
  7 69  1  0
  8 70  1  0
  8 71  1  0
  8 72  1  0
  9 73  1  0
 10 74  1  0
 10 75  1  0
 11 76  1  0
 11 77  1  0
 12 78  1  0
 12 79  1  0
 13 80  1  0
 13 81  1  0
 14 82  1  0
 14 83  1  0
 15 84  1  0
 15 85  1  0
 16 86  1  0
 16 87  1  0
 17 88  1  0
 17 89  1  0
 18 90  1  0
 18 91  1  0
 19 92  1  0
 19 93  1  0
 20 94  1  0
 20 95  1  0
 21 96  1  0
 21 97  1  0
 22 98  1  0
 22 99  1  0
 23100  1  0
 23101  1  0
 24102  1  0
 24103  1  0
 25104  1  0
 25105  1  0
 26106  1  0
 26107  1  0
 26108  1  0
 27109  1  1
 28110  1  0
 28111  1  0
 29112  1  0
 29113  1  0
 30114  1  0
 30115  1  0
 31116  1  0
 31117  1  0
 32118  1  0
 32119  1  0
 33120  1  0
 33121  1  0
 34122  1  0
 34123  1  0
 35124  1  0
 35125  1  0
 36126  1  0
 36127  1  0
 37128  1  0
 37129  1  0
 38130  1  0
 38131  1  0
 39132  1  0
 39133  1  0
 40134  1  0
 40135  1  0
 41136  1  0
 41137  1  0
 42138  1  0
 42139  1  0
 43140  1  0
 43141  1  0
 44142  1  0
 44143  1  0
 44144  1  0
 48145  1  0
 49146  1  0
 50147  1  0
 51148  1  0
 54149  1  0
M  CHG  1  45   1
M  END
$$$$
PHOSPHATIDYLCHOLINE TRANSFER PROTEIN
     RDKit          3D

149148  0  0  0  0  0  0  0  0999 V2000
    1.6727   -1.2273   -0.0006 C   0  0  0  0  0  0  0  0  0  0  0  0
    2.7073   -0.8621   -1.1019 C   0  0  1  0  0  0  0  0  0  0  0  0
    2.1027   -1.1996   -2.3910 C   0  0  0  0  0  0  0  0  0  0  0  0
    0.2941    2.6348    0.3193 C   0  0  0  0  0  0  0  0  0  0  0  0
    1.0331    3.9361    0.3033 C   0  0  0  0  0  0  0  0  0  0  0  0
    1.3385    6.0127   -0.7103 C   0  0  0  0  0  0  0  0  0  0  0  0
   -0.4129    4.5817   -1.4704 C   0  0  0  0  0  0  0  0  0  0  0  0
    1.8464    4.0682   -1.9140 C   0  0  0  0  0  0  0  0  0  0  0  0
    0.5125   -1.1769   -3.9142 C   0  0  0  0  0  0  0  0  0  0  0  0
    0.0144   -0.1866   -4.8814 C   0  0  0  0  0  0  0  0  0  0  0  0
   -1.2969    0.4760   -4.5041 C   0  0  0  0  0  0  0  0  0  0  0  0
   -1.6144    1.4316   -5.6297 C   0  0  0  0  0  0  0  0  0  0  0  0
   -2.9419    2.1425   -5.4612 C   0  0  0  0  0  0  0  0  0  0  0  0
   -3.2120    3.0810   -6.6080 C   0  0  0  0  0  0  0  0  0  0  0  0
   -4.5514    3.7413   -6.4912 C   0  0  0  0  0  0  0  0  0  0  0  0
   -4.7714    4.5664   -5.2648 C   0  0  0  0  0  0  0  0  0  0  0  0
   -3.7646    5.6911   -5.1891 C   0  0  0  0  0  0  0  0  0  0  0  0
   -4.0029    6.5655   -3.9759 C   0  0  0  0  0  0  0  0  0  0  0  0
   -3.9292    5.8180   -2.6691 C   0  0  0  0  0  0  0  0  0  0  0  0
   -4.1823    6.8292   -1.5778 C   0  0  0  0  0  0  0  0  0  0  0  0
   -4.1588    6.2642   -0.2062 C   0  0  0  0  0  0  0  0  0  0  0  0
   -5.1875    5.1898    0.0550 C   0  0  0  0  0  0  0  0  0  0  0  0
   -6.5669    5.7325   -0.1276 C   0  0  0  0  0  0  0  0  0  0  0  0
   -7.6557    4.7454    0.1074 C   0  0  0  0  0  0  0  0  0  0  0  0
   -7.6248    3.5545   -0.7989 C   0  0  0  0  0  0  0  0  0  0  0  0
   -7.7551    3.9390   -2.2577 C   0  0  0  0  0  0  0  0  0  0  0  0
    4.2601    0.6401   -0.3388 C   0  0  1  0  0  0  0  0  0  0  0  0
    4.2661    1.2156    1.0388 C   0  0  0  0  0  0  0  0  0  0  0  0
    5.6785    1.3489    1.5635 C   0  0  0  0  0  0  0  0  0  0  0  0
    6.4011    0.0293    1.5945 C   0  0  0  0  0  0  0  0  0  0  0  0
    5.7822   -1.0383    2.3909 C   0  0  0  0  0  0  0  0  0  0  0  0
    5.6034   -0.8277    3.8532 C   0  0  0  0  0  0  0  0  0  0  0  0
    4.9122   -2.1045    4.3563 C   0  0  0  0  0  0  0  0  0  0  0  0
    4.6602   -2.1253    5.8212 C   0  0  0  0  0  0  0  0  0  0  0  0
    3.9323   -3.4330    6.1964 C   0  0  0  0  0  0  0  0  0  0  0  0
    4.7228   -4.6508    5.8152 C   0  0  0  0  0  0  0  0  0  0  0  0
    3.9788   -5.9405    6.1805 C   0  0  0  0  0  0  0  0  0  0  0  0
    2.6514   -6.0106    5.4917 C   0  0  0  0  0  0  0  0  0  0  0  0
    1.8750   -7.2850    5.7747 C   0  0  0  0  0  0  0  0  0  0  0  0
    2.6666   -8.5045    5.3170 C   0  0  0  0  0  0  0  0  0  0  0  0
    2.9629   -8.4011    3.8236 C   0  0  0  0  0  0  0  0  0  0  0  0
    3.7412   -9.6112    3.3311 C   0  0  0  0  0  0  0  0  0  0  0  0
    4.0580   -9.5033    1.8623 C   0  0  0  0  0  0  0  0  0  0  0  0
    2.8048   -9.3941    1.0394 C   0  0  0  0  0  0  0  0  0  0  0  0
    0.9316    4.6450   -0.9616 N   0  0  2  0  0  0  0  0  0  0  0  0
    2.9579    0.4915   -0.8478 O   0  0  0  0  0  0  0  0  0  0  0  0
    0.8041   -0.6905   -2.6234 O   0  0  0  0  0  0  0  0  0  0  0  0
   -0.4077   -2.2444   -3.7387 O   0  0  0  0  0  0  0  0  0  0  0  0
    4.9661    1.4489   -1.1952 O   0  0  0  0  0  0  0  0  0  0  0  0
    0.9130    0.0761    2.6814 O   0  0  0  0  0  0  0  0  0  0  0  0
   -1.0585   -0.9531    1.3374 O   0  0  0  0  0  0  0  0  0  0  0  0
    0.5477   -0.4218   -0.1632 O   0  0  0  0  0  0  0  0  0  0  0  0
    0.4159    1.9564    1.5586 O   0  0  0  0  0  0  0  0  0  0  0  0
    0.0381    0.3213    1.2589 P   0  0  0  0  0  0  0  0  0  0  0  0
    1.4498   -2.3039   -0.0540 H   0  0  0  0  0  0  0  0  0  0  0  0
    2.1172   -0.9909    0.9813 H   0  0  0  0  0  0  0  0  0  0  0  0
    3.5630   -1.5209   -0.8710 H   0  0  0  0  0  0  0  0  0  0  0  0
    2.6876   -0.8960   -3.2850 H   0  0  0  0  0  0  0  0  0  0  0  0
    2.0022   -2.3073   -2.4805 H   0  0  0  0  0  0  0  0  0  0  0  0
   -0.8071    2.7603    0.2017 H   0  0  0  0  0  0  0  0  0  0  0  0
    0.5983    1.9313   -0.4767 H   0  0  0  0  0  0  0  0  0  0  0  0
    0.6850    4.5710    1.1269 H   0  0  0  0  0  0  0  0  0  0  0  0
    2.1082    3.7357    0.4478 H   0  0  0  0  0  0  0  0  0  0  0  0
    0.5233    6.5310   -0.1935 H   0  0  0  0  0  0  0  0  0  0  0  0
    2.2162    5.9494   -0.0028 H   0  0  0  0  0  0  0  0  0  0  0  0
    1.7149    6.5290   -1.6187 H   0  0  0  0  0  0  0  0  0  0  0  0
   -0.7059    3.5270   -1.6466 H   0  0  0  0  0  0  0  0  0  0  0  0
   -0.4277    5.1399   -2.4469 H   0  0  0  0  0  0  0  0  0  0  0  0
   -1.1341    5.1362   -0.8329 H   0  0  0  0  0  0  0  0  0  0  0  0
    1.3192    3.6037   -2.7741 H   0  0  0  0  0  0  0  0  0  0  0  0
    2.5355    4.8404   -2.3100 H   0  0  0  0  0  0  0  0  0  0  0  0
    2.4671    3.2768   -1.4476 H   0  0  0  0  0  0  0  0  0  0  0  0
    1.4203   -1.6821   -4.2777 H   0  0  0  0  0  0  0  0  0  0  0  0
    0.7092    0.6028   -5.1643 H   0  0  0  0  0  0  0  0  0  0  0  0
   -0.2152   -0.7394   -5.8372 H   0  0  0  0  0  0  0  0  0  0  0  0
   -1.2838    0.9523   -3.5249 H   0  0  0  0  0  0  0  0  0  0  0  0
   -2.1457   -0.2609   -4.4753 H   0  0  0  0  0  0  0  0  0  0  0  0
   -1.5310    0.9324   -6.6100 H   0  0  0  0  0  0  0  0  0  0  0  0
   -0.8347    2.2356   -5.6259 H   0  0  0  0  0  0  0  0  0  0  0  0
   -3.7107    1.3214   -5.5262 H   0  0  0  0  0  0  0  0  0  0  0  0
   -3.0021    2.6662   -4.5090 H   0  0  0  0  0  0  0  0  0  0  0  0
   -3.1291    2.5671   -7.5942 H   0  0  0  0  0  0  0  0  0  0  0  0
   -2.4068    3.8636   -6.6127 H   0  0  0  0  0  0  0  0  0  0  0  0
   -4.7356    4.3915   -7.4023 H   0  0  0  0  0  0  0  0  0  0  0  0
   -5.3731    2.9644   -6.5041 H   0  0  0  0  0  0  0  0  0  0  0  0
   -5.8121    4.9520   -5.3188 H   0  0  0  0  0  0  0  0  0  0  0  0
   -4.6963    3.9253   -4.3511 H   0  0  0  0  0  0  0  0  0  0  0  0
   -3.9315    6.3187   -6.0965 H   0  0  0  0  0  0  0  0  0  0  0  0
   -2.7465    5.3118   -5.2223 H   0  0  0  0  0  0  0  0  0  0  0  0
   -4.8837    7.2006   -4.0645 H   0  0  0  0  0  0  0  0  0  0  0  0
   -3.1211    7.2722   -3.9544 H   0  0  0  0  0  0  0  0  0  0  0  0
   -4.5877    4.9391   -2.6022 H   0  0  0  0  0  0  0  0  0  0  0  0
   -2.9000    5.4259   -2.5970 H   0  0  0  0  0  0  0  0  0  0  0  0
   -3.3542    7.5829   -1.6309 H   0  0  0  0  0  0  0  0  0  0  0  0
   -5.1156    7.4047   -1.7688 H   0  0  0  0  0  0  0  0  0  0  0  0
   -4.4039    7.1222    0.4903 H   0  0  0  0  0  0  0  0  0  0  0  0
   -3.1435    5.9578    0.1081 H   0  0  0  0  0  0  0  0  0  0  0  0
   -5.0673    4.9117    1.1211 H   0  0  0  0  0  0  0  0  0  0  0  0
   -5.0855    4.3410   -0.6530 H   0  0  0  0  0  0  0  0  0  0  0  0
   -6.6316    6.2016   -1.1310 H   0  0  0  0  0  0  0  0  0  0  0  0
   -6.6622    6.5850    0.6007 H   0  0  0  0  0  0  0  0  0  0  0  0
   -8.6218    5.2674   -0.0650 H   0  0  0  0  0  0  0  0  0  0  0  0
   -7.6685    4.4469    1.1719 H   0  0  0  0  0  0  0  0  0  0  0  0
   -6.7109    2.9412   -0.7135 H   0  0  0  0  0  0  0  0  0  0  0  0
   -8.4828    2.9030   -0.5411 H   0  0  0  0  0  0  0  0  0  0  0  0
   -8.7539    4.3535   -2.5076 H   0  0  0  0  0  0  0  0  0  0  0  0
   -6.9534    4.6801   -2.4461 H   0  0  0  0  0  0  0  0  0  0  0  0
   -7.4922    3.0395   -2.8410 H   0  0  0  0  0  0  0  0  0  0  0  0
    4.7483   -0.3711   -0.3314 H   0  0  0  0  0  0  0  0  0  0  0  0
    3.5760    0.7533    1.7465 H   0  0  0  0  0  0  0  0  0  0  0  0
    3.9046    2.2774    0.9388 H   0  0  0  0  0  0  0  0  0  0  0  0
    6.2228    1.9954    0.8403 H   0  0  0  0  0  0  0  0  0  0  0  0
    5.6973    1.9055    2.5166 H   0  0  0  0  0  0  0  0  0  0  0  0
    6.5395   -0.3179    0.5571 H   0  0  0  0  0  0  0  0  0  0  0  0
    7.4225    0.2555    1.9784 H   0  0  0  0  0  0  0  0  0  0  0  0
    6.4452   -1.9494    2.2901 H   0  0  0  0  0  0  0  0  0  0  0  0
    4.8274   -1.3861    1.9007 H   0  0  0  0  0  0  0  0  0  0  0  0
    5.0582    0.0777    4.1366 H   0  0  0  0  0  0  0  0  0  0  0  0
    6.5649   -0.7933    4.3994 H   0  0  0  0  0  0  0  0  0  0  0  0
    5.5527   -2.9417    3.9925 H   0  0  0  0  0  0  0  0  0  0  0  0
    3.9554   -2.1771    3.7933 H   0  0  0  0  0  0  0  0  0  0  0  0
    5.6430   -2.1847    6.3528 H   0  0  0  0  0  0  0  0  0  0  0  0
    4.0547   -1.2685    6.1167 H   0  0  0  0  0  0  0  0  0  0  0  0
    2.9080   -3.4026    5.7989 H   0  0  0  0  0  0  0  0  0  0  0  0
    3.9032   -3.4259    7.3221 H   0  0  0  0  0  0  0  0  0  0  0  0
    4.9301   -4.7120    4.7148 H   0  0  0  0  0  0  0  0  0  0  0  0
    5.6506   -4.6559    6.4192 H   0  0  0  0  0  0  0  0  0  0  0  0
    3.8730   -6.0725    7.2648 H   0  0  0  0  0  0  0  0  0  0  0  0
    4.5985   -6.7883    5.7866 H   0  0  0  0  0  0  0  0  0  0  0  0
    2.6960   -5.8931    4.4017 H   0  0  0  0  0  0  0  0  0  0  0  0
    1.9663   -5.1813    5.8510 H   0  0  0  0  0  0  0  0  0  0  0  0
    0.9482   -7.2674    5.1585 H   0  0  0  0  0  0  0  0  0  0  0  0
    1.5657   -7.3806    6.8214 H   0  0  0  0  0  0  0  0  0  0  0  0
    2.0143   -9.3968    5.4625 H   0  0  0  0  0  0  0  0  0  0  0  0
    3.6243   -8.5921    5.8601 H   0  0  0  0  0  0  0  0  0  0  0  0
    3.6362   -7.5304    3.6389 H   0  0  0  0  0  0  0  0  0  0  0  0
    2.0772   -8.2440    3.2152 H   0  0  0  0  0  0  0  0  0  0  0  0
    3.1029  -10.5269    3.4371 H   0  0  0  0  0  0  0  0  0  0  0  0
    4.6446   -9.7748    3.9280 H   0  0  0  0  0  0  0  0  0  0  0  0
    4.7443   -8.6329    1.6840 H   0  0  0  0  0  0  0  0  0  0  0  0
    4.6194  -10.4301    1.5689 H   0  0  0  0  0  0  0  0  0  0  0  0
    2.3652   -8.3685    1.2113 H   0  0  0  0  0  0  0  0  0  0  0  0
    3.0637   -9.3814   -0.0526 H   0  0  0  0  0  0  0  0  0  0  0  0
    2.1070  -10.2074    1.2866 H   0  0  0  0  0  0  0  0  0  0  0  0
   -0.6953   -2.3167   -2.7976 H   0  0  0  0  0  0  0  0  0  0  0  0
    4.7874    2.4007   -0.9170 H   0  0  0  0  0  0  0  0  0  0  0  0
    0.2072   -0.0589    3.3785 H   0  0  0  0  0  0  0  0  0  0  0  0
   -1.6058   -0.8965    2.1895 H   0  0  0  0  0  0  0  0  0  0  0  0
   -0.6166   -0.1917    0.1475 H   0  0  0  0  0  0  0  0  0  0  0  0
  1  2  1  0
  1 52  1  0
  2  3  1  0
  2 46  1  0
  3 47  1  0
  4  5  1  0
  4 53  1  0
 45  5  1  1
  6 45  1  0
  7 45  1  0
  8 45  1  0
  9 10  1  0
  9 47  1  0
  9 48  1  0
 10 11  1  0
 11 12  1  0
 12 13  1  0
 13 14  1  0
 14 15  1  0
 15 16  1  0
 16 17  1  0
 17 18  1  0
 18 19  1  0
 19 20  1  0
 20 21  1  0
 21 22  1  0
 22 23  1  0
 23 24  1  0
 24 25  1  0
 25 26  1  0
 27 28  1  0
 27 46  1  0
 27 49  1  0
 28 29  1  0
 29 30  1  0
 30 31  1  0
 31 32  1  0
 32 33  1  0
 33 34  1  0
 34 35  1  0
 35 36  1  0
 36 37  1  0
 37 38  1  0
 38 39  1  0
 39 40  1  0
 40 41  1  0
 41 42  1  0
 42 43  1  0
 43 44  1  0
 50 54  1  0
 51 54  1  0
 52 54  1  0
 53 54  1  0
  1 55  1  0
  1 56  1  0
  2 57  1  1
  3 58  1  0
  3 59  1  0
  4 60  1  0
  4 61  1  0
  5 62  1  0
  5 63  1  0
  6 64  1  0
  6 65  1  0
  6 66  1  0
  7 67  1  0
  7 68  1  0
  7 69  1  0
  8 70  1  0
  8 71  1  0
  8 72  1  0
  9 73  1  0
 10 74  1  0
 10 75  1  0
 11 76  1  0
 11 77  1  0
 12 78  1  0
 12 79  1  0
 13 80  1  0
 13 81  1  0
 14 82  1  0
 14 83  1  0
 15 84  1  0
 15 85  1  0
 16 86  1  0
 16 87  1  0
 17 88  1  0
 17 89  1  0
 18 90  1  0
 18 91  1  0
 19 92  1  0
 19 93  1  0
 20 94  1  0
 20 95  1  0
 21 96  1  0
 21 97  1  0
 22 98  1  0
 22 99  1  0
 23100  1  0
 23101  1  0
 24102  1  0
 24103  1  0
 25104  1  0
 25105  1  0
 26106  1  0
 26107  1  0
 26108  1  0
 27109  1  1
 28110  1  0
 28111  1  0
 29112  1  0
 29113  1  0
 30114  1  0
 30115  1  0
 31116  1  0
 31117  1  0
 32118  1  0
 32119  1  0
 33120  1  0
 33121  1  0
 34122  1  0
 34123  1  0
 35124  1  0
 35125  1  0
 36126  1  0
 36127  1  0
 37128  1  0
 37129  1  0
 38130  1  0
 38131  1  0
 39132  1  0
 39133  1  0
 40134  1  0
 40135  1  0
 41136  1  0
 41137  1  0
 42138  1  0
 42139  1  0
 43140  1  0
 43141  1  0
 44142  1  0
 44143  1  0
 44144  1  0
 48145  1  0
 49146  1  0
 50147  1  0
 51148  1  0
 54149  1  0
M  CHG  1  45   1
M  END
$$$$
PHOSPHATIDYLCHOLINE TRANSFER PROTEIN
     RDKit          3D

149148  0  0  0  0  0  0  0  0999 V2000
   -1.2837   -3.0166    3.9197 C   0  0  0  0  0  0  0  0  0  0  0  0
   -1.3906   -1.5477    3.7055 C   0  0  1  0  0  0  0  0  0  0  0  0
   -2.7314   -1.0525    3.3475 C   0  0  0  0  0  0  0  0  0  0  0  0
   -1.4941   -7.1752    3.1948 C   0  0  0  0  0  0  0  0  0  0  0  0
   -1.6436   -7.6371    1.7574 C   0  0  0  0  0  0  0  0  0  0  0  0
    0.1082   -6.1223    1.1183 C   0  0  0  0  0  0  0  0  0  0  0  0
   -0.8511   -7.5301   -0.4878 C   0  0  0  0  0  0  0  0  0  0  0  0
    0.5481   -8.3983    1.1797 C   0  0  0  0  0  0  0  0  0  0  0  0
   -4.6853   -1.2225    2.1583 C   0  0  0  0  0  0  0  0  0  0  0  0
   -5.1389   -1.0206    0.7638 C   0  0  0  0  0  0  0  0  0  0  0  0
   -5.1897   -2.3346   -0.0183 C   0  0  0  0  0  0  0  0  0  0  0  0
   -5.7472   -2.0936   -1.4272 C   0  0  0  0  0  0  0  0  0  0  0  0
   -5.8171   -3.3468   -2.2134 C   0  0  0  0  0  0  0  0  0  0  0  0
   -4.6202   -4.1093   -2.5312 C   0  0  0  0  0  0  0  0  0  0  0  0
   -3.5825   -3.7696   -3.4881 C   0  0  0  0  0  0  0  0  0  0  0  0
   -2.8501   -2.4976   -3.5632 C   0  0  0  0  0  0  0  0  0  0  0  0
   -3.5598   -1.3034   -4.0801 C   0  0  0  0  0  0  0  0  0  0  0  0
   -2.6299   -0.0710   -3.9949 C   0  0  0  0  0  0  0  0  0  0  0  0
   -3.4417    1.0856   -4.5229 C   0  0  0  0  0  0  0  0  0  0  0  0
   -2.5860    2.3427   -4.4306 C   0  0  0  0  0  0  0  0  0  0  0  0
   -2.1833    2.6141   -3.0083 C   0  0  0  0  0  0  0  0  0  0  0  0
   -1.3401    3.8817   -2.9868 C   0  0  0  0  0  0  0  0  0  0  0  0
   -0.9150    4.1866   -1.5470 C   0  0  0  0  0  0  0  0  0  0  0  0
   -0.1209    3.0407   -0.9783 C   0  0  0  0  0  0  0  0  0  0  0  0
    0.3102    3.3457    0.4423 C   0  0  0  0  0  0  0  0  0  0  0  0
   -0.8551    3.6005    1.3684 C   0  0  0  0  0  0  0  0  0  0  0  0
    0.4220   -0.3044    4.4700 C   0  0  1  0  0  0  0  0  0  0  0  0
    1.2276   -0.3622    5.6933 C   0  0  0  0  0  0  0  0  0  0  0  0
    2.6486   -0.0365    5.7926 C   0  0  0  0  0  0  0  0  0  0  0  0
    3.2371    1.2137    5.2772 C   0  0  0  0  0  0  0  0  0  0  0  0
    3.3751    1.3302    3.7920 C   0  0  0  0  0  0  0  0  0  0  0  0
    3.9781    2.6784    3.3494 C   0  0  0  0  0  0  0  0  0  0  0  0
    4.1181    2.5242    1.8283 C   0  0  0  0  0  0  0  0  0  0  0  0
    4.6906    3.7682    1.2152 C   0  0  0  0  0  0  0  0  0  0  0  0
    4.8548    3.5462   -0.2777 C   0  0  0  0  0  0  0  0  0  0  0  0
    5.4005    4.8115   -0.8868 C   0  0  0  0  0  0  0  0  0  0  0  0
    5.5920    4.6122   -2.4212 C   0  0  0  0  0  0  0  0  0  0  0  0
    6.0995    5.9014   -2.9488 C   0  0  0  0  0  0  0  0  0  0  0  0
    6.3997    5.9953   -4.3808 C   0  0  0  0  0  0  0  0  0  0  0  0
    5.3766    5.8348   -5.4142 C   0  0  0  0  0  0  0  0  0  0  0  0
    4.6643    4.5481   -5.5376 C   0  0  0  0  0  0  0  0  0  0  0  0
    5.6017    3.3717   -5.7366 C   0  0  0  0  0  0  0  0  0  0  0  0
    4.7121    2.1338   -5.8590 C   0  0  0  0  0  0  0  0  0  0  0  0
    5.5605    0.9055   -6.0663 C   0  0  0  0  0  0  0  0  0  0  0  0
   -0.4992   -7.4251    0.9372 N   0  0  2  0  0  0  0  0  0  0  0  0
   -0.8878   -0.8034    4.7394 O   0  0  0  0  0  0  0  0  0  0  0  0
   -3.4205   -1.7574    2.3584 O   0  0  0  0  0  0  0  0  0  0  0  0
   -5.6555   -2.1021    2.7335 O   0  0  0  0  0  0  0  0  0  0  0  0
    0.1948    1.1159    4.2470 O   0  0  0  0  0  0  0  0  0  0  0  0
   -0.0670   -5.9962    4.9562 O   0  0  0  0  0  0  0  0  0  0  0  0
   -2.5554   -5.7065    6.1263 O   0  0  0  0  0  0  0  0  0  0  0  0
   -1.9081   -3.5740    5.0162 O   0  0  0  0  0  0  0  0  0  0  0  0
   -1.2260   -5.8423    3.2993 O   0  0  0  0  0  0  0  0  0  0  0  0
   -1.5651   -5.2567    4.8519 P   0  0  0  0  0  0  0  0  0  0  0  0
   -1.5179   -3.5603    2.9749 H   0  0  0  0  0  0  0  0  0  0  0  0
   -0.1789   -3.2254    4.0702 H   0  0  0  0  0  0  0  0  0  0  0  0
   -0.6586   -1.3625    2.8436 H   0  0  0  0  0  0  0  0  0  0  0  0
   -2.5795   -0.0133    2.9171 H   0  0  0  0  0  0  0  0  0  0  0  0
   -3.3298   -0.8640    4.2615 H   0  0  0  0  0  0  0  0  0  0  0  0
   -0.7490   -7.8292    3.7334 H   0  0  0  0  0  0  0  0  0  0  0  0
   -2.4790   -7.4163    3.6757 H   0  0  0  0  0  0  0  0  0  0  0  0
   -2.5349   -7.1656    1.3158 H   0  0  0  0  0  0  0  0  0  0  0  0
   -1.8808   -8.7429    1.7925 H   0  0  0  0  0  0  0  0  0  0  0  0
    0.7106   -5.9411    0.1760 H   0  0  0  0  0  0  0  0  0  0  0  0
    0.8370   -6.1361    1.9395 H   0  0  0  0  0  0  0  0  0  0  0  0
   -0.6114   -5.2857    1.1355 H   0  0  0  0  0  0  0  0  0  0  0  0
   -1.5841   -8.3430   -0.6093 H   0  0  0  0  0  0  0  0  0  0  0  0
    0.0683   -7.6567   -1.1072 H   0  0  0  0  0  0  0  0  0  0  0  0
   -1.2538   -6.5382   -0.7844 H   0  0  0  0  0  0  0  0  0  0  0  0
    0.1057   -9.4179    1.1204 H   0  0  0  0  0  0  0  0  0  0  0  0
    1.3094   -8.2922    0.3479 H   0  0  0  0  0  0  0  0  0  0  0  0
    1.0656   -8.2334    2.1582 H   0  0  0  0  0  0  0  0  0  0  0  0
   -4.7865   -0.3110    2.7649 H   0  0  0  0  0  0  0  0  0  0  0  0
   -4.4946   -0.2817    0.2057 H   0  0  0  0  0  0  0  0  0  0  0  0
   -6.1426   -0.5529    0.7918 H   0  0  0  0  0  0  0  0  0  0  0  0
   -4.1511   -2.7272   -0.0489 H   0  0  0  0  0  0  0  0  0  0  0  0
   -5.7925   -3.0542    0.5546 H   0  0  0  0  0  0  0  0  0  0  0  0
   -5.3533   -1.1926   -1.8625 H   0  0  0  0  0  0  0  0  0  0  0  0
   -6.8451   -1.8197   -1.2062 H   0  0  0  0  0  0  0  0  0  0  0  0
   -6.3284   -3.0934   -3.1911 H   0  0  0  0  0  0  0  0  0  0  0  0
   -6.5952   -3.9904   -1.6826 H   0  0  0  0  0  0  0  0  0  0  0  0
   -4.1318   -4.5044   -1.5331 H   0  0  0  0  0  0  0  0  0  0  0  0
   -5.0221   -5.1465   -2.8886 H   0  0  0  0  0  0  0  0  0  0  0  0
   -2.7563   -4.5924   -3.4770 H   0  0  0  0  0  0  0  0  0  0  0  0
   -3.9597   -3.9568   -4.5797 H   0  0  0  0  0  0  0  0  0  0  0  0
   -2.2938   -2.2560   -2.6009 H   0  0  0  0  0  0  0  0  0  0  0  0
   -1.9779   -2.6713   -4.2817 H   0  0  0  0  0  0  0  0  0  0  0  0
   -4.5206   -1.0136   -3.7402 H   0  0  0  0  0  0  0  0  0  0  0  0
   -3.6841   -1.5120   -5.2190 H   0  0  0  0  0  0  0  0  0  0  0  0
   -2.4406    0.0683   -2.9332 H   0  0  0  0  0  0  0  0  0  0  0  0
   -1.6937   -0.2368   -4.5224 H   0  0  0  0  0  0  0  0  0  0  0  0
   -4.3353    1.1931   -3.8728 H   0  0  0  0  0  0  0  0  0  0  0  0
   -3.7976    0.9075   -5.5354 H   0  0  0  0  0  0  0  0  0  0  0  0
   -3.2246    3.1524   -4.8476 H   0  0  0  0  0  0  0  0  0  0  0  0
   -1.6744    2.2834   -5.0471 H   0  0  0  0  0  0  0  0  0  0  0  0
   -1.4881    1.7935   -2.7146 H   0  0  0  0  0  0  0  0  0  0  0  0
   -3.0285    2.6859   -2.3153 H   0  0  0  0  0  0  0  0  0  0  0  0
   -1.9285    4.7388   -3.3667 H   0  0  0  0  0  0  0  0  0  0  0  0
   -0.4448    3.7363   -3.5900 H   0  0  0  0  0  0  0  0  0  0  0  0
   -0.2108    5.0490   -1.6087 H   0  0  0  0  0  0  0  0  0  0  0  0
   -1.8298    4.4001   -0.9731 H   0  0  0  0  0  0  0  0  0  0  0  0
   -0.6830    2.0817   -0.9310 H   0  0  0  0  0  0  0  0  0  0  0  0
    0.7855    2.8949   -1.5916 H   0  0  0  0  0  0  0  0  0  0  0  0
    0.8421    2.4413    0.8605 H   0  0  0  0  0  0  0  0  0  0  0  0
    1.0010    4.1965    0.5133 H   0  0  0  0  0  0  0  0  0  0  0  0
   -0.4272    3.6192    2.4010 H   0  0  0  0  0  0  0  0  0  0  0  0
   -1.2972    4.5984    1.1850 H   0  0  0  0  0  0  0  0  0  0  0  0
   -1.6222    2.8128    1.3639 H   0  0  0  0  0  0  0  0  0  0  0  0
    0.7897   -0.7153    3.5750 H   0  0  0  0  0  0  0  0  0  0  0  0
    1.1527   -1.4760    6.0323 H   0  0  0  0  0  0  0  0  0  0  0  0
    0.7149    0.2249    6.5396 H   0  0  0  0  0  0  0  0  0  0  0  0
    2.9069   -0.1709    6.9108 H   0  0  0  0  0  0  0  0  0  0  0  0
    3.2804   -0.8986    5.3432 H   0  0  0  0  0  0  0  0  0  0  0  0
    4.2959    1.2683    5.6844 H   0  0  0  0  0  0  0  0  0  0  0  0
    2.7623    2.1299    5.7153 H   0  0  0  0  0  0  0  0  0  0  0  0
    4.1789    0.5884    3.4252 H   0  0  0  0  0  0  0  0  0  0  0  0
    2.5013    1.0874    3.2019 H   0  0  0  0  0  0  0  0  0  0  0  0
    3.2540    3.4582    3.6158 H   0  0  0  0  0  0  0  0  0  0  0  0
    4.9744    2.8165    3.7828 H   0  0  0  0  0  0  0  0  0  0  0  0
    3.1526    2.3208    1.3610 H   0  0  0  0  0  0  0  0  0  0  0  0
    4.8216    1.6697    1.6768 H   0  0  0  0  0  0  0  0  0  0  0  0
    3.9329    4.5929    1.2964 H   0  0  0  0  0  0  0  0  0  0  0  0
    5.6473    4.0925    1.6720 H   0  0  0  0  0  0  0  0  0  0  0  0
    3.8819    3.2868   -0.7033 H   0  0  0  0  0  0  0  0  0  0  0  0
    5.5831    2.6988   -0.4214 H   0  0  0  0  0  0  0  0  0  0  0  0
    4.6752    5.6115   -0.7403 H   0  0  0  0  0  0  0  0  0  0  0  0
    6.3757    5.0831   -0.4635 H   0  0  0  0  0  0  0  0  0  0  0  0
    4.6937    4.2240   -2.8500 H   0  0  0  0  0  0  0  0  0  0  0  0
    6.4008    3.8483   -2.5256 H   0  0  0  0  0  0  0  0  0  0  0  0
    5.3130    6.7038   -2.7014 H   0  0  0  0  0  0  0  0  0  0  0  0
    6.9950    6.2538   -2.3208 H   0  0  0  0  0  0  0  0  0  0  0  0
    7.2460    5.2472   -4.6106 H   0  0  0  0  0  0  0  0  0  0  0  0
    6.9799    6.9778   -4.5516 H   0  0  0  0  0  0  0  0  0  0  0  0
    4.5632    6.6304   -5.2713 H   0  0  0  0  0  0  0  0  0  0  0  0
    5.8505    6.0676   -6.4246 H   0  0  0  0  0  0  0  0  0  0  0  0
    3.8762    4.4150   -4.8051 H   0  0  0  0  0  0  0  0  0  0  0  0
    4.0621    4.6162   -6.5435 H   0  0  0  0  0  0  0  0  0  0  0  0
    6.2052    3.5052   -6.6514 H   0  0  0  0  0  0  0  0  0  0  0  0
    6.2918    3.2546   -4.8993 H   0  0  0  0  0  0  0  0  0  0  0  0
    3.9983    2.2678   -6.7146 H   0  0  0  0  0  0  0  0  0  0  0  0
    4.0904    2.0247   -4.9545 H   0  0  0  0  0  0  0  0  0  0  0  0
    4.8973    0.0376   -6.3089 H   0  0  0  0  0  0  0  0  0  0  0  0
    6.2271    1.0922   -6.9580 H   0  0  0  0  0  0  0  0  0  0  0  0
    6.1791    0.6815   -5.1776 H   0  0  0  0  0  0  0  0  0  0  0  0
   -6.4085   -1.5606    3.0633 H   0  0  0  0  0  0  0  0  0  0  0  0
   -0.4371    1.3760    4.9361 H   0  0  0  0  0  0  0  0  0  0  0  0
   -0.1072   -6.5831    5.7687 H   0  0  0  0  0  0  0  0  0  0  0  0
   -2.0776   -6.3920    6.6665 H   0  0  0  0  0  0  0  0  0  0  0  0
   -2.9541   -5.2901    4.7336 H   0  0  0  0  0  0  0  0  0  0  0  0
  1  2  1  0
  1 52  1  0
  2  3  1  0
  2 46  1  0
  3 47  1  0
  4  5  1  0
  4 53  1  0
 45  5  1  1
  6 45  1  0
  7 45  1  0
  8 45  1  0
  9 10  1  0
  9 47  1  0
  9 48  1  0
 10 11  1  0
 11 12  1  0
 12 13  1  0
 13 14  1  0
 14 15  1  0
 15 16  1  0
 16 17  1  0
 17 18  1  0
 18 19  1  0
 19 20  1  0
 20 21  1  0
 21 22  1  0
 22 23  1  0
 23 24  1  0
 24 25  1  0
 25 26  1  0
 27 28  1  0
 27 46  1  0
 27 49  1  0
 28 29  1  0
 29 30  1  0
 30 31  1  0
 31 32  1  0
 32 33  1  0
 33 34  1  0
 34 35  1  0
 35 36  1  0
 36 37  1  0
 37 38  1  0
 38 39  1  0
 39 40  1  0
 40 41  1  0
 41 42  1  0
 42 43  1  0
 43 44  1  0
 50 54  1  0
 51 54  1  0
 52 54  1  0
 53 54  1  0
  1 55  1  0
  1 56  1  0
  2 57  1  6
  3 58  1  0
  3 59  1  0
  4 60  1  0
  4 61  1  0
  5 62  1  0
  5 63  1  0
  6 64  1  0
  6 65  1  0
  6 66  1  0
  7 67  1  0
  7 68  1  0
  7 69  1  0
  8 70  1  0
  8 71  1  0
  8 72  1  0
  9 73  1  0
 10 74  1  0
 10 75  1  0
 11 76  1  0
 11 77  1  0
 12 78  1  0
 12 79  1  0
 13 80  1  0
 13 81  1  0
 14 82  1  0
 14 83  1  0
 15 84  1  0
 15 85  1  0
 16 86  1  0
 16 87  1  0
 17 88  1  0
 17 89  1  0
 18 90  1  0
 18 91  1  0
 19 92  1  0
 19 93  1  0
 20 94  1  0
 20 95  1  0
 21 96  1  0
 21 97  1  0
 22 98  1  0
 22 99  1  0
 23100  1  0
 23101  1  0
 24102  1  0
 24103  1  0
 25104  1  0
 25105  1  0
 26106  1  0
 26107  1  0
 26108  1  0
 27109  1  6
 28110  1  0
 28111  1  0
 29112  1  0
 29113  1  0
 30114  1  0
 30115  1  0
 31116  1  0
 31117  1  0
 32118  1  0
 32119  1  0
 33120  1  0
 33121  1  0
 34122  1  0
 34123  1  0
 35124  1  0
 35125  1  0
 36126  1  0
 36127  1  0
 37128  1  0
 37129  1  0
 38130  1  0
 38131  1  0
 39132  1  0
 39133  1  0
 40134  1  0
 40135  1  0
 41136  1  0
 41137  1  0
 42138  1  0
 42139  1  0
 43140  1  0
 43141  1  0
 44142  1  0
 44143  1  0
 44144  1  0
 48145  1  0
 49146  1  0
 50147  1  0
 51148  1  0
 54149  1  0
M  CHG  1  45   1
M  END
$$$$
PHOSPHATIDYLCHOLINE TRANSFER PROTEIN
     RDKit          3D

149148  0  0  0  0  0  0  0  0999 V2000
    0.7184    0.2094   -0.2991 C   0  0  0  0  0  0  0  0  0  0  0  0
    1.7867    0.4988    0.6806 C   0  0  1  0  0  0  0  0  0  0  0  0
    1.8794    2.0144    0.8097 C   0  0  0  0  0  0  0  0  0  0  0  0
   -2.8304   -0.6599   -2.7362 C   0  0  0  0  0  0  0  0  0  0  0  0
   -4.2267   -1.1819   -2.8810 C   0  0  0  0  0  0  0  0  0  0  0  0
   -3.8839   -3.4361   -3.6215 C   0  0  0  0  0  0  0  0  0  0  0  0
   -3.6175   -1.6858   -5.1594 C   0  0  0  0  0  0  0  0  0  0  0  0
   -5.7474   -2.2255   -4.3584 C   0  0  0  0  0  0  0  0  0  0  0  0
    2.8818    3.8331    1.7973 C   0  0  0  0  0  0  0  0  0  0  0  0
    4.1000    4.5508    1.3362 C   0  0  0  0  0  0  0  0  0  0  0  0
    4.4562    4.4909   -0.0764 C   0  0  0  0  0  0  0  0  0  0  0  0
    3.6197    5.0145   -1.1572 C   0  0  0  0  0  0  0  0  0  0  0  0
    3.3002    6.4411   -1.2543 C   0  0  0  0  0  0  0  0  0  0  0  0
    2.4799    7.1456   -0.2596 C   0  0  0  0  0  0  0  0  0  0  0  0
    1.0532    6.7248   -0.1313 C   0  0  0  0  0  0  0  0  0  0  0  0
    0.2644    6.9371   -1.4125 C   0  0  0  0  0  0  0  0  0  0  0  0
   -1.1353    6.4183   -1.1427 C   0  0  0  0  0  0  0  0  0  0  0  0
   -1.8360    7.1115   -0.0033 C   0  0  0  0  0  0  0  0  0  0  0  0
   -3.2469    6.5418    0.2070 C   0  0  0  0  0  0  0  0  0  0  0  0
   -3.2460    5.0896    0.5274 C   0  0  0  0  0  0  0  0  0  0  0  0
   -4.6438    4.5347    0.7423 C   0  0  0  0  0  0  0  0  0  0  0  0
   -4.4877    3.0464    1.0552 C   0  0  0  0  0  0  0  0  0  0  0  0
   -5.8329    2.3941    1.2818 C   0  0  0  0  0  0  0  0  0  0  0  0
   -5.6247    0.9448    1.5800 C   0  0  0  0  0  0  0  0  0  0  0  0
   -6.9529    0.2326    1.8095 C   0  0  0  0  0  0  0  0  0  0  0  0
   -6.7370   -1.2397    2.1202 C   0  0  0  0  0  0  0  0  0  0  0  0
    2.5264   -1.0401    2.2235 C   0  0  1  0  0  0  0  0  0  0  0  0
    1.9957   -2.0572    3.1401 C   0  0  0  0  0  0  0  0  0  0  0  0
    2.9129   -3.1828    3.5019 C   0  0  0  0  0  0  0  0  0  0  0  0
    4.2550   -2.8038    4.0104 C   0  0  0  0  0  0  0  0  0  0  0  0
    5.0009   -4.1020    4.3767 C   0  0  0  0  0  0  0  0  0  0  0  0
    6.4248   -3.8247    4.6900 C   0  0  0  0  0  0  0  0  0  0  0  0
    7.2395   -3.3511    3.5407 C   0  0  0  0  0  0  0  0  0  0  0  0
    7.5336   -4.2924    2.4415 C   0  0  0  0  0  0  0  0  0  0  0  0
    6.4746   -4.9615    1.6748 C   0  0  0  0  0  0  0  0  0  0  0  0
    5.5075   -4.1426    0.9024 C   0  0  0  0  0  0  0  0  0  0  0  0
    4.4400   -5.0737    0.3108 C   0  0  0  0  0  0  0  0  0  0  0  0
    3.4026   -4.3327   -0.4599 C   0  0  0  0  0  0  0  0  0  0  0  0
    2.3943   -5.3739   -0.9750 C   0  0  0  0  0  0  0  0  0  0  0  0
    1.3016   -4.6699   -1.7277 C   0  0  0  0  0  0  0  0  0  0  0  0
    0.2884   -5.6263   -2.2930 C   0  0  0  0  0  0  0  0  0  0  0  0
   -0.3581   -6.4465   -1.2195 C   0  0  0  0  0  0  0  0  0  0  0  0
   -1.3962   -7.4032   -1.7795 C   0  0  0  0  0  0  0  0  0  0  0  0
   -1.9976   -8.2010   -0.6245 C   0  0  0  0  0  0  0  0  0  0  0  0
   -4.3476   -2.1079   -3.9970 N   0  0  2  0  0  0  0  0  0  0  0  0
    1.5677   -0.0756    1.9119 O   0  0  0  0  0  0  0  0  0  0  0  0
    2.9218    2.4461    1.5905 O   0  0  0  0  0  0  0  0  0  0  0  0
    2.7309    4.0482    3.1631 O   0  0  0  0  0  0  0  0  0  0  0  0
    3.4949   -0.3100    3.0700 O   0  0  0  0  0  0  0  0  0  0  0  0
   -1.4791    2.6143   -1.7323 O   0  0  0  0  0  0  0  0  0  0  0  0
   -1.0638    1.3163   -3.2099 O   0  0  0  0  0  0  0  0  0  0  0  0
   -0.5492    0.6455   -0.0335 O   0  0  0  0  0  0  0  0  0  0  0  0
   -2.7510    0.2329   -1.6390 O   0  0  0  0  0  0  0  0  0  0  0  0
   -1.2560    0.9614   -1.5613 P   0  0  0  0  0  0  0  0  0  0  0  0
    1.0578    0.5766   -1.3161 H   0  0  0  0  0  0  0  0  0  0  0  0
    0.6792   -0.9023   -0.4339 H   0  0  0  0  0  0  0  0  0  0  0  0
    2.7557    0.1520    0.2236 H   0  0  0  0  0  0  0  0  0  0  0  0
    0.8778    2.3594    1.1039 H   0  0  0  0  0  0  0  0  0  0  0  0
    2.0234    2.3831   -0.2493 H   0  0  0  0  0  0  0  0  0  0  0  0
   -2.5450   -0.0853   -3.6445 H   0  0  0  0  0  0  0  0  0  0  0  0
   -2.0669   -1.4638   -2.6601 H   0  0  0  0  0  0  0  0  0  0  0  0
   -4.5877   -1.6216   -1.9403 H   0  0  0  0  0  0  0  0  0  0  0  0
   -4.9002   -0.3348   -3.1295 H   0  0  0  0  0  0  0  0  0  0  0  0
   -4.1622   -4.1150   -4.4695 H   0  0  0  0  0  0  0  0  0  0  0  0
   -4.3797   -3.8511   -2.7405 H   0  0  0  0  0  0  0  0  0  0  0  0
   -2.7875   -3.4775   -3.5667 H   0  0  0  0  0  0  0  0  0  0  0  0
   -2.5699   -2.0871   -5.1744 H   0  0  0  0  0  0  0  0  0  0  0  0
   -3.5766   -0.6013   -5.3034 H   0  0  0  0  0  0  0  0  0  0  0  0
   -4.0646   -2.1257   -6.1003 H   0  0  0  0  0  0  0  0  0  0  0  0
   -6.3358   -2.7653   -3.5973 H   0  0  0  0  0  0  0  0  0  0  0  0
   -6.1687   -1.2027   -4.4839 H   0  0  0  0  0  0  0  0  0  0  0  0
   -5.8366   -2.8183   -5.2981 H   0  0  0  0  0  0  0  0  0  0  0  0
    1.9480    4.2302    1.3126 H   0  0  0  0  0  0  0  0  0  0  0  0
    4.9602    4.0553    1.9296 H   0  0  0  0  0  0  0  0  0  0  0  0
    4.0781    5.5694    1.7791 H   0  0  0  0  0  0  0  0  0  0  0  0
    4.7734    3.4139   -0.3112 H   0  0  0  0  0  0  0  0  0  0  0  0
    5.4730    5.0170   -0.1757 H   0  0  0  0  0  0  0  0  0  0  0  0
    4.1638    4.7519   -2.1314 H   0  0  0  0  0  0  0  0  0  0  0  0
    2.6512    4.4528   -1.2995 H   0  0  0  0  0  0  0  0  0  0  0  0
    2.8938    6.6323   -2.2949 H   0  0  0  0  0  0  0  0  0  0  0  0
    4.3115    6.9901   -1.2673 H   0  0  0  0  0  0  0  0  0  0  0  0
    2.9053    7.2380    0.7368 H   0  0  0  0  0  0  0  0  0  0  0  0
    2.4215    8.2272   -0.6245 H   0  0  0  0  0  0  0  0  0  0  0  0
    0.8246    5.7396    0.2102 H   0  0  0  0  0  0  0  0  0  0  0  0
    0.5929    7.4531    0.6020 H   0  0  0  0  0  0  0  0  0  0  0  0
    0.2547    8.0145   -1.6838 H   0  0  0  0  0  0  0  0  0  0  0  0
    0.6991    6.3786   -2.2527 H   0  0  0  0  0  0  0  0  0  0  0  0
   -1.7616    6.3637   -2.0436 H   0  0  0  0  0  0  0  0  0  0  0  0
   -1.0030    5.3495   -0.7902 H   0  0  0  0  0  0  0  0  0  0  0  0
   -1.3138    6.8753    0.9701 H   0  0  0  0  0  0  0  0  0  0  0  0
   -1.8959    8.2023   -0.1324 H   0  0  0  0  0  0  0  0  0  0  0  0
   -3.8469    6.7526   -0.6961 H   0  0  0  0  0  0  0  0  0  0  0  0
   -3.6893    7.1708    1.0162 H   0  0  0  0  0  0  0  0  0  0  0  0
   -2.8006    4.5564   -0.3426 H   0  0  0  0  0  0  0  0  0  0  0  0
   -2.6897    4.9244    1.4719 H   0  0  0  0  0  0  0  0  0  0  0  0
   -5.0735    4.9756    1.6893 H   0  0  0  0  0  0  0  0  0  0  0  0
   -5.3343    4.7377   -0.0760 H   0  0  0  0  0  0  0  0  0  0  0  0
   -3.8638    2.9893    1.9680 H   0  0  0  0  0  0  0  0  0  0  0  0
   -3.9401    2.6013    0.2307 H   0  0  0  0  0  0  0  0  0  0  0  0
   -6.3899    2.9286    2.0709 H   0  0  0  0  0  0  0  0  0  0  0  0
   -6.4394    2.4781    0.3531 H   0  0  0  0  0  0  0  0  0  0  0  0
   -5.1060    0.4157    0.7657 H   0  0  0  0  0  0  0  0  0  0  0  0
   -5.0409    0.7832    2.5066 H   0  0  0  0  0  0  0  0  0  0  0  0
   -7.5210    0.6858    2.6355 H   0  0  0  0  0  0  0  0  0  0  0  0
   -7.5762    0.2452    0.8899 H   0  0  0  0  0  0  0  0  0  0  0  0
   -5.8410   -1.3289    2.7558 H   0  0  0  0  0  0  0  0  0  0  0  0
   -6.6174   -1.8305    1.2037 H   0  0  0  0  0  0  0  0  0  0  0  0
   -7.6101   -1.5716    2.7470 H   0  0  0  0  0  0  0  0  0  0  0  0
    3.1359   -1.2891    1.3733 H   0  0  0  0  0  0  0  0  0  0  0  0
    1.1155   -2.5605    2.6217 H   0  0  0  0  0  0  0  0  0  0  0  0
    1.5198   -1.5836    4.0404 H   0  0  0  0  0  0  0  0  0  0  0  0
    2.3418   -3.8029    4.2556 H   0  0  0  0  0  0  0  0  0  0  0  0
    2.9729   -3.8691    2.6126 H   0  0  0  0  0  0  0  0  0  0  0  0
    4.1112   -2.3040    5.0126 H   0  0  0  0  0  0  0  0  0  0  0  0
    4.8437   -2.1244    3.4092 H   0  0  0  0  0  0  0  0  0  0  0  0
    4.8383   -4.8134    3.6028 H   0  0  0  0  0  0  0  0  0  0  0  0
    4.4807   -4.5311    5.3016 H   0  0  0  0  0  0  0  0  0  0  0  0
    6.8978   -4.7369    5.1671 H   0  0  0  0  0  0  0  0  0  0  0  0
    6.4591   -3.0633    5.5285 H   0  0  0  0  0  0  0  0  0  0  0  0
    8.2530   -3.0562    3.9715 H   0  0  0  0  0  0  0  0  0  0  0  0
    6.8169   -2.3782    3.1791 H   0  0  0  0  0  0  0  0  0  0  0  0
    8.2098   -5.0990    2.8486 H   0  0  0  0  0  0  0  0  0  0  0  0
    8.2105   -3.7860    1.6686 H   0  0  0  0  0  0  0  0  0  0  0  0
    7.0933   -5.5022    0.8160 H   0  0  0  0  0  0  0  0  0  0  0  0
    6.0509   -5.8900    2.1476 H   0  0  0  0  0  0  0  0  0  0  0  0
    6.0159   -3.7265   -0.0414 H   0  0  0  0  0  0  0  0  0  0  0  0
    5.0979   -3.2580    1.3811 H   0  0  0  0  0  0  0  0  0  0  0  0
    4.9616   -5.8064   -0.3127 H   0  0  0  0  0  0  0  0  0  0  0  0
    3.9119   -5.6108    1.1385 H   0  0  0  0  0  0  0  0  0  0  0  0
    3.8111   -3.8177   -1.3346 H   0  0  0  0  0  0  0  0  0  0  0  0
    2.8194   -3.6625    0.2116 H   0  0  0  0  0  0  0  0  0  0  0  0
    1.9301   -5.8685   -0.0701 H   0  0  0  0  0  0  0  0  0  0  0  0
    2.8686   -6.1552   -1.5727 H   0  0  0  0  0  0  0  0  0  0  0  0
    1.7889   -4.1678   -2.6127 H   0  0  0  0  0  0  0  0  0  0  0  0
    0.8006   -3.9667   -1.0604 H   0  0  0  0  0  0  0  0  0  0  0  0
   -0.4999   -5.1061   -2.8789 H   0  0  0  0  0  0  0  0  0  0  0  0
    0.8003   -6.2853   -3.0315 H   0  0  0  0  0  0  0  0  0  0  0  0
    0.4260   -7.0363   -0.7188 H   0  0  0  0  0  0  0  0  0  0  0  0
   -0.8420   -5.8252   -0.4572 H   0  0  0  0  0  0  0  0  0  0  0  0
   -2.2238   -6.7619   -2.1795 H   0  0  0  0  0  0  0  0  0  0  0  0
   -1.0078   -8.1212   -2.4969 H   0  0  0  0  0  0  0  0  0  0  0  0
   -3.0162   -7.8449   -0.3756 H   0  0  0  0  0  0  0  0  0  0  0  0
   -2.1278   -9.2777   -0.9106 H   0  0  0  0  0  0  0  0  0  0  0  0
   -1.3339   -8.2027    0.2662 H   0  0  0  0  0  0  0  0  0  0  0  0
    2.7377    5.0517    3.2818 H   0  0  0  0  0  0  0  0  0  0  0  0
    2.9924   -0.1382    3.9046 H   0  0  0  0  0  0  0  0  0  0  0  0
   -0.6462    3.1095   -1.4605 H   0  0  0  0  0  0  0  0  0  0  0  0
   -0.1084    1.3223   -3.4563 H   0  0  0  0  0  0  0  0  0  0  0  0
   -2.5172    1.5358   -1.3445 H   0  0  0  0  0  0  0  0  0  0  0  0
  1  2  1  0
  1 52  1  0
  2  3  1  0
  2 46  1  0
  3 47  1  0
  4  5  1  0
  4 53  1  0
 45  5  1  1
  6 45  1  0
  7 45  1  0
  8 45  1  0
  9 10  1  0
  9 47  1  0
  9 48  1  0
 10 11  1  0
 11 12  1  0
 12 13  1  0
 13 14  1  0
 14 15  1  0
 15 16  1  0
 16 17  1  0
 17 18  1  0
 18 19  1  0
 19 20  1  0
 20 21  1  0
 21 22  1  0
 22 23  1  0
 23 24  1  0
 24 25  1  0
 25 26  1  0
 27 28  1  0
 27 46  1  0
 27 49  1  0
 28 29  1  0
 29 30  1  0
 30 31  1  0
 31 32  1  0
 32 33  1  0
 33 34  1  0
 34 35  1  0
 35 36  1  0
 36 37  1  0
 37 38  1  0
 38 39  1  0
 39 40  1  0
 40 41  1  0
 41 42  1  0
 42 43  1  0
 43 44  1  0
 50 54  1  0
 51 54  1  0
 52 54  1  0
 53 54  1  0
  1 55  1  0
  1 56  1  0
  2 57  1  6
  3 58  1  0
  3 59  1  0
  4 60  1  0
  4 61  1  0
  5 62  1  0
  5 63  1  0
  6 64  1  0
  6 65  1  0
  6 66  1  0
  7 67  1  0
  7 68  1  0
  7 69  1  0
  8 70  1  0
  8 71  1  0
  8 72  1  0
  9 73  1  0
 10 74  1  0
 10 75  1  0
 11 76  1  0
 11 77  1  0
 12 78  1  0
 12 79  1  0
 13 80  1  0
 13 81  1  0
 14 82  1  0
 14 83  1  0
 15 84  1  0
 15 85  1  0
 16 86  1  0
 16 87  1  0
 17 88  1  0
 17 89  1  0
 18 90  1  0
 18 91  1  0
 19 92  1  0
 19 93  1  0
 20 94  1  0
 20 95  1  0
 21 96  1  0
 21 97  1  0
 22 98  1  0
 22 99  1  0
 23100  1  0
 23101  1  0
 24102  1  0
 24103  1  0
 25104  1  0
 25105  1  0
 26106  1  0
 26107  1  0
 26108  1  0
 27109  1  6
 28110  1  0
 28111  1  0
 29112  1  0
 29113  1  0
 30114  1  0
 30115  1  0
 31116  1  0
 31117  1  0
 32118  1  0
 32119  1  0
 33120  1  0
 33121  1  0
 34122  1  0
 34123  1  0
 35124  1  0
 35125  1  0
 36126  1  0
 36127  1  0
 37128  1  0
 37129  1  0
 38130  1  0
 38131  1  0
 39132  1  0
 39133  1  0
 40134  1  0
 40135  1  0
 41136  1  0
 41137  1  0
 42138  1  0
 42139  1  0
 43140  1  0
 43141  1  0
 44142  1  0
 44143  1  0
 44144  1  0
 48145  1  0
 49146  1  0
 50147  1  0
 51148  1  0
 54149  1  0
M  CHG  1  45   1
M  END
$$$$
PHOSPHATIDYLCHOLINE TRANSFER PROTEIN
     RDKit          3D

149148  0  0  0  0  0  0  0  0999 V2000
    1.5971    0.5788   -2.6938 C   0  0  0  0  0  0  0  0  0  0  0  0
    0.8261    0.1642   -1.3842 C   0  0  1  0  0  0  0  0  0  0  0  0
    1.8207   -0.6770   -0.6458 C   0  0  0  0  0  0  0  0  0  0  0  0
    3.0850    0.2818   -5.6046 C   0  0  0  0  0  0  0  0  0  0  0  0
    2.7787   -0.9392   -6.3986 C   0  0  0  0  0  0  0  0  0  0  0  0
    3.9502   -2.7354   -5.4311 C   0  0  0  0  0  0  0  0  0  0  0  0
    5.1415   -1.2160   -6.7438 C   0  0  0  0  0  0  0  0  0  0  0  0
    3.5975   -2.7073   -7.7354 C   0  0  0  0  0  0  0  0  0  0  0  0
    1.7173   -2.7572   -1.8860 C   0  0  0  0  0  0  0  0  0  0  0  0
    0.4433   -3.6462   -1.6593 C   0  0  0  0  0  0  0  0  0  0  0  0
    0.5902   -4.4712   -0.4335 C   0  0  0  0  0  0  0  0  0  0  0  0
    0.8915   -3.8143    0.8403 C   0  0  0  0  0  0  0  0  0  0  0  0
   -0.0694   -2.8064    1.3259 C   0  0  0  0  0  0  0  0  0  0  0  0
    0.4190   -2.2087    2.6625 C   0  0  0  0  0  0  0  0  0  0  0  0
   -0.4840   -1.1279    3.1241 C   0  0  0  0  0  0  0  0  0  0  0  0
   -0.1091   -0.4887    4.4426 C   0  0  0  0  0  0  0  0  0  0  0  0
    1.2935    0.1008    4.3880 C   0  0  0  0  0  0  0  0  0  0  0  0
    1.5989    0.7178    5.7301 C   0  0  0  0  0  0  0  0  0  0  0  0
    2.9640    1.3039    5.8573 C   0  0  0  0  0  0  0  0  0  0  0  0
    3.3113    2.3929    4.9036 C   0  0  0  0  0  0  0  0  0  0  0  0
    2.4261    3.6017    5.0304 C   0  0  0  0  0  0  0  0  0  0  0  0
    2.6886    4.7147    4.1096 C   0  0  0  0  0  0  0  0  0  0  0  0
    3.9260    5.4708    4.0401 C   0  0  0  0  0  0  0  0  0  0  0  0
    4.4315    6.3229    5.1225 C   0  0  0  0  0  0  0  0  0  0  0  0
    4.7992    5.6601    6.3965 C   0  0  0  0  0  0  0  0  0  0  0  0
    5.9166    4.6609    6.2834 C   0  0  0  0  0  0  0  0  0  0  0  0
   -0.6286    1.8063   -0.7935 C   0  0  1  0  0  0  0  0  0  0  0  0
   -0.8321    3.2552   -0.9760 C   0  0  0  0  0  0  0  0  0  0  0  0
   -2.2080    3.7235   -1.2040 C   0  0  0  0  0  0  0  0  0  0  0  0
   -3.3118    3.4672   -0.2814 C   0  0  0  0  0  0  0  0  0  0  0  0
   -3.2554    3.9449    1.1184 C   0  0  0  0  0  0  0  0  0  0  0  0
   -4.6031    3.6558    1.7538 C   0  0  0  0  0  0  0  0  0  0  0  0
   -5.0273    2.2339    1.7853 C   0  0  0  0  0  0  0  0  0  0  0  0
   -4.1064    1.4045    2.6159 C   0  0  0  0  0  0  0  0  0  0  0  0
   -4.4791   -0.0755    2.6399 C   0  0  0  0  0  0  0  0  0  0  0  0
   -4.4156   -0.6775    1.2810 C   0  0  0  0  0  0  0  0  0  0  0  0
   -4.7799   -2.1421    1.2280 C   0  0  0  0  0  0  0  0  0  0  0  0
   -6.1951   -2.4286    1.6544 C   0  0  0  0  0  0  0  0  0  0  0  0
   -6.4600   -3.9112    1.5789 C   0  0  0  0  0  0  0  0  0  0  0  0
   -6.2571   -4.5126    0.2337 C   0  0  0  0  0  0  0  0  0  0  0  0
   -7.0855   -3.9748   -0.8758 C   0  0  0  0  0  0  0  0  0  0  0  0
   -8.5658   -4.0941   -0.6937 C   0  0  0  0  0  0  0  0  0  0  0  0
   -9.3057   -3.5372   -1.9008 C   0  0  0  0  0  0  0  0  0  0  0  0
   -8.9405   -2.0857   -2.0761 C   0  0  0  0  0  0  0  0  0  0  0  0
    3.8544   -1.8575   -6.5831 N   0  0  2  0  0  0  0  0  0  0  0  0
    0.7264    1.3997   -0.6652 O   0  0  0  0  0  0  0  0  0  0  0  0
    1.7646   -1.9668   -0.8555 O   0  0  0  0  0  0  0  0  0  0  0  0
    2.7874   -3.7046   -1.8553 O   0  0  0  0  0  0  0  0  0  0  0  0
   -1.2429    1.5043    0.4707 O   0  0  0  0  0  0  0  0  0  0  0  0
    4.9120    0.5431   -2.6595 O   0  0  0  0  0  0  0  0  0  0  0  0
    4.5435    2.9862   -3.8487 O   0  0  0  0  0  0  0  0  0  0  0  0
    2.8195    0.9896   -2.2407 O   0  0  0  0  0  0  0  0  0  0  0  0
    3.5112    0.0511   -4.2983 O   0  0  0  0  0  0  0  0  0  0  0  0
    3.7920    1.5033   -3.4782 P   0  0  0  0  0  0  0  0  0  0  0  0
    1.5349   -0.2478   -3.3718 H   0  0  0  0  0  0  0  0  0  0  0  0
    1.0306    1.4201   -3.1592 H   0  0  0  0  0  0  0  0  0  0  0  0
   -0.1115   -0.2192   -1.6933 H   0  0  0  0  0  0  0  0  0  0  0  0
    2.8636   -0.2255   -0.7854 H   0  0  0  0  0  0  0  0  0  0  0  0
    1.6960   -0.4994    0.4896 H   0  0  0  0  0  0  0  0  0  0  0  0
    3.9174    0.8291   -6.1181 H   0  0  0  0  0  0  0  0  0  0  0  0
    2.1577    0.8867   -5.5203 H   0  0  0  0  0  0  0  0  0  0  0  0
    1.8638   -1.4632   -6.0613 H   0  0  0  0  0  0  0  0  0  0  0  0
    2.5089   -0.5683   -7.4362 H   0  0  0  0  0  0  0  0  0  0  0  0
    5.0347   -2.9082   -5.1679 H   0  0  0  0  0  0  0  0  0  0  0  0
    3.5231   -3.7350   -5.6325 H   0  0  0  0  0  0  0  0  0  0  0  0
    3.4564   -2.3337   -4.5272 H   0  0  0  0  0  0  0  0  0  0  0  0
    5.1598   -0.4433   -7.5244 H   0  0  0  0  0  0  0  0  0  0  0  0
    5.5253   -0.8606   -5.7764 H   0  0  0  0  0  0  0  0  0  0  0  0
    5.8531   -2.0241   -7.0855 H   0  0  0  0  0  0  0  0  0  0  0  0
    3.1694   -2.0969   -8.5402 H   0  0  0  0  0  0  0  0  0  0  0  0
    2.9260   -3.5209   -7.4164 H   0  0  0  0  0  0  0  0  0  0  0  0
    4.5817   -3.1692   -8.0052 H   0  0  0  0  0  0  0  0  0  0  0  0
    1.7061   -2.4155   -2.9205 H   0  0  0  0  0  0  0  0  0  0  0  0
   -0.4379   -3.0067   -1.7178 H   0  0  0  0  0  0  0  0  0  0  0  0
    0.4285   -4.3201   -2.5371 H   0  0  0  0  0  0  0  0  0  0  0  0
    1.3760   -5.2529   -0.6856 H   0  0  0  0  0  0  0  0  0  0  0  0
   -0.3702   -5.0465   -0.3124 H   0  0  0  0  0  0  0  0  0  0  0  0
    1.9638   -3.4657    0.8996 H   0  0  0  0  0  0  0  0  0  0  0  0
    0.8877   -4.6526    1.6267 H   0  0  0  0  0  0  0  0  0  0  0  0
   -1.0217   -3.3821    1.5777 H   0  0  0  0  0  0  0  0  0  0  0  0
   -0.3868   -2.0497    0.6243 H   0  0  0  0  0  0  0  0  0  0  0  0
    1.4711   -1.9512    2.6000 H   0  0  0  0  0  0  0  0  0  0  0  0
    0.3539   -3.0578    3.3899 H   0  0  0  0  0  0  0  0  0  0  0  0
   -0.4669   -0.2773    2.3788 H   0  0  0  0  0  0  0  0  0  0  0  0
   -1.5479   -1.4469    3.1750 H   0  0  0  0  0  0  0  0  0  0  0  0
   -0.2460   -1.2316    5.2413 H   0  0  0  0  0  0  0  0  0  0  0  0
   -0.8639    0.3406    4.5982 H   0  0  0  0  0  0  0  0  0  0  0  0
    1.9791   -0.7346    4.1444 H   0  0  0  0  0  0  0  0  0  0  0  0
    1.2681    0.9187    3.6507 H   0  0  0  0  0  0  0  0  0  0  0  0
    1.5060   -0.0590    6.5371 H   0  0  0  0  0  0  0  0  0  0  0  0
    0.8125    1.4748    5.9345 H   0  0  0  0  0  0  0  0  0  0  0  0
    2.9812    1.7848    6.8879 H   0  0  0  0  0  0  0  0  0  0  0  0
    3.7497    0.5218    5.8823 H   0  0  0  0  0  0  0  0  0  0  0  0
    4.3530    2.6895    5.0625 H   0  0  0  0  0  0  0  0  0  0  0  0
    3.1438    1.9979    3.8696 H   0  0  0  0  0  0  0  0  0  0  0  0
    1.3906    3.1897    4.7098 H   0  0  0  0  0  0  0  0  0  0  0  0
    2.2064    3.9003    6.0783 H   0  0  0  0  0  0  0  0  0  0  0  0
    1.8558    5.4919    4.3189 H   0  0  0  0  0  0  0  0  0  0  0  0
    2.3782    4.4109    3.0386 H   0  0  0  0  0  0  0  0  0  0  0  0
    4.8162    4.8370    3.7054 H   0  0  0  0  0  0  0  0  0  0  0  0
    3.8547    6.1796    3.1227 H   0  0  0  0  0  0  0  0  0  0  0  0
    3.7456    7.2072    5.3332 H   0  0  0  0  0  0  0  0  0  0  0  0
    5.4012    6.7993    4.7106 H   0  0  0  0  0  0  0  0  0  0  0  0
    3.9283    5.1691    6.8401 H   0  0  0  0  0  0  0  0  0  0  0  0
    5.2051    6.4479    7.1265 H   0  0  0  0  0  0  0  0  0  0  0  0
    5.6544    3.7763    6.9006 H   0  0  0  0  0  0  0  0  0  0  0  0
    6.9136    5.0842    6.5975 H   0  0  0  0  0  0  0  0  0  0  0  0
    6.1000    4.3010    5.2473 H   0  0  0  0  0  0  0  0  0  0  0  0
   -1.0978    1.1841   -1.5452 H   0  0  0  0  0  0  0  0  0  0  0  0
   -0.4220    3.7447   -0.0212 H   0  0  0  0  0  0  0  0  0  0  0  0
   -0.1852    3.6710   -1.8049 H   0  0  0  0  0  0  0  0  0  0  0  0
   -2.1775    4.8444   -1.3895 H   0  0  0  0  0  0  0  0  0  0  0  0
   -2.5458    3.3126   -2.2225 H   0  0  0  0  0  0  0  0  0  0  0  0
   -3.5941    2.3655   -0.2567 H   0  0  0  0  0  0  0  0  0  0  0  0
   -4.2351    3.9430   -0.7367 H   0  0  0  0  0  0  0  0  0  0  0  0
   -2.4811    3.5323    1.7626 H   0  0  0  0  0  0  0  0  0  0  0  0
   -3.1648    5.0663    1.1400 H   0  0  0  0  0  0  0  0  0  0  0  0
   -4.6209    4.0545    2.8127 H   0  0  0  0  0  0  0  0  0  0  0  0
   -5.4145    4.2194    1.2184 H   0  0  0  0  0  0  0  0  0  0  0  0
   -5.1666    1.8572    0.7457 H   0  0  0  0  0  0  0  0  0  0  0  0
   -6.0666    2.1329    2.2314 H   0  0  0  0  0  0  0  0  0  0  0  0
   -3.0600    1.5803    2.4267 H   0  0  0  0  0  0  0  0  0  0  0  0
   -4.2910    1.7385    3.6910 H   0  0  0  0  0  0  0  0  0  0  0  0
   -3.7903   -0.5774    3.3217 H   0  0  0  0  0  0  0  0  0  0  0  0
   -5.5058   -0.1437    3.0776 H   0  0  0  0  0  0  0  0  0  0  0  0
   -3.3798   -0.6067    0.8919 H   0  0  0  0  0  0  0  0  0  0  0  0
   -5.0661   -0.1378    0.5409 H   0  0  0  0  0  0  0  0  0  0  0  0
   -4.5866   -2.5418    0.2112 H   0  0  0  0  0  0  0  0  0  0  0  0
   -4.1100   -2.7112    1.9121 H   0  0  0  0  0  0  0  0  0  0  0  0
   -6.9089   -1.8400    1.0550 H   0  0  0  0  0  0  0  0  0  0  0  0
   -6.3283   -2.1034    2.7071 H   0  0  0  0  0  0  0  0  0  0  0  0
   -5.7377   -4.4244    2.2682 H   0  0  0  0  0  0  0  0  0  0  0  0
   -7.4758   -4.1725    1.9486 H   0  0  0  0  0  0  0  0  0  0  0  0
   -5.1888   -4.4636   -0.0935 H   0  0  0  0  0  0  0  0  0  0  0  0
   -6.4773   -5.6052    0.3129 H   0  0  0  0  0  0  0  0  0  0  0  0
   -6.8267   -2.9427   -1.1567 H   0  0  0  0  0  0  0  0  0  0  0  0
   -6.8224   -4.5951   -1.7870 H   0  0  0  0  0  0  0  0  0  0  0  0
   -8.8972   -3.4564    0.1688 H   0  0  0  0  0  0  0  0  0  0  0  0
   -8.9370   -5.1220   -0.5404 H   0  0  0  0  0  0  0  0  0  0  0  0
   -9.1752   -4.1503   -2.7987 H   0  0  0  0  0  0  0  0  0  0  0  0
  -10.4040   -3.6208   -1.6397 H   0  0  0  0  0  0  0  0  0  0  0  0
   -8.6123   -1.6407   -1.1081 H   0  0  0  0  0  0  0  0  0  0  0  0
   -9.8413   -1.5500   -2.4430 H   0  0  0  0  0  0  0  0  0  0  0  0
   -8.0795   -1.9840   -2.7784 H   0  0  0  0  0  0  0  0  0  0  0  0
    3.3535   -3.4319   -1.0932 H   0  0  0  0  0  0  0  0  0  0  0  0
   -0.6996    1.9982    1.1089 H   0  0  0  0  0  0  0  0  0  0  0  0
    5.7888    0.7711   -3.0828 H   0  0  0  0  0  0  0  0  0  0  0  0
    5.4799    2.9307   -3.5281 H   0  0  0  0  0  0  0  0  0  0  0  0
    3.2416    2.4980   -4.3077 H   0  0  0  0  0  0  0  0  0  0  0  0
  1  2  1  0
  1 52  1  0
  2  3  1  0
  2 46  1  0
  3 47  1  0
  4  5  1  0
  4 53  1  0
 45  5  1  1
  6 45  1  0
  7 45  1  0
  8 45  1  0
  9 10  1  0
  9 47  1  0
  9 48  1  0
 10 11  1  0
 11 12  1  0
 12 13  1  0
 13 14  1  0
 14 15  1  0
 15 16  1  0
 16 17  1  0
 17 18  1  0
 18 19  1  0
 19 20  1  0
 20 21  1  0
 21 22  1  0
 22 23  1  0
 23 24  1  0
 24 25  1  0
 25 26  1  0
 27 28  1  0
 27 46  1  0
 27 49  1  0
 28 29  1  0
 29 30  1  0
 30 31  1  0
 31 32  1  0
 32 33  1  0
 33 34  1  0
 34 35  1  0
 35 36  1  0
 36 37  1  0
 37 38  1  0
 38 39  1  0
 39 40  1  0
 40 41  1  0
 41 42  1  0
 42 43  1  0
 43 44  1  0
 50 54  1  0
 51 54  1  0
 52 54  1  0
 53 54  1  0
  1 55  1  0
  1 56  1  0
  2 57  1  6
  3 58  1  0
  3 59  1  0
  4 60  1  0
  4 61  1  0
  5 62  1  0
  5 63  1  0
  6 64  1  0
  6 65  1  0
  6 66  1  0
  7 67  1  0
  7 68  1  0
  7 69  1  0
  8 70  1  0
  8 71  1  0
  8 72  1  0
  9 73  1  0
 10 74  1  0
 10 75  1  0
 11 76  1  0
 11 77  1  0
 12 78  1  0
 12 79  1  0
 13 80  1  0
 13 81  1  0
 14 82  1  0
 14 83  1  0
 15 84  1  0
 15 85  1  0
 16 86  1  0
 16 87  1  0
 17 88  1  0
 17 89  1  0
 18 90  1  0
 18 91  1  0
 19 92  1  0
 19 93  1  0
 20 94  1  0
 20 95  1  0
 21 96  1  0
 21 97  1  0
 22 98  1  0
 22 99  1  0
 23100  1  0
 23101  1  0
 24102  1  0
 24103  1  0
 25104  1  0
 25105  1  0
 26106  1  0
 26107  1  0
 26108  1  0
 27109  1  6
 28110  1  0
 28111  1  0
 29112  1  0
 29113  1  0
 30114  1  0
 30115  1  0
 31116  1  0
 31117  1  0
 32118  1  0
 32119  1  0
 33120  1  0
 33121  1  0
 34122  1  0
 34123  1  0
 35124  1  0
 35125  1  0
 36126  1  0
 36127  1  0
 37128  1  0
 37129  1  0
 38130  1  0
 38131  1  0
 39132  1  0
 39133  1  0
 40134  1  0
 40135  1  0
 41136  1  0
 41137  1  0
 42138  1  0
 42139  1  0
 43140  1  0
 43141  1  0
 44142  1  0
 44143  1  0
 44144  1  0
 48145  1  0
 49146  1  0
 50147  1  0
 51148  1  0
 54149  1  0
M  CHG  1  45   1
M  END
$$$$
PHOSPHATIDYLCHOLINE TRANSFER PROTEIN
     RDKit          3D

149148  0  0  0  0  0  0  0  0999 V2000
   -1.5361   -0.3919    3.0475 C   0  0  0  0  0  0  0  0  0  0  0  0
   -0.7842   -1.5121    3.6056 C   0  0  1  0  0  0  0  0  0  0  0  0
   -1.7358   -2.4295    4.4403 C   0  0  0  0  0  0  0  0  0  0  0  0
   -0.4056    4.1874    3.8294 C   0  0  0  0  0  0  0  0  0  0  0  0
   -0.2488    4.8125    5.1959 C   0  0  0  0  0  0  0  0  0  0  0  0
    2.0813    4.9231    5.0381 C   0  0  0  0  0  0  0  0  0  0  0  0
    1.0060    6.2532    6.6347 C   0  0  0  0  0  0  0  0  0  0  0  0
    0.8578    6.7627    4.3026 C   0  0  0  0  0  0  0  0  0  0  0  0
   -3.5350   -1.9645    5.9608 C   0  0  0  0  0  0  0  0  0  0  0  0
   -4.9945   -2.0446    5.7231 C   0  0  0  0  0  0  0  0  0  0  0  0
   -5.6271   -3.0541    4.9082 C   0  0  0  0  0  0  0  0  0  0  0  0
   -5.4186   -3.3797    3.5038 C   0  0  0  0  0  0  0  0  0  0  0  0
   -5.6070   -2.3456    2.4408 C   0  0  0  0  0  0  0  0  0  0  0  0
   -5.5560   -3.0079    1.0639 C   0  0  0  0  0  0  0  0  0  0  0  0
   -4.3636   -3.7526    0.7095 C   0  0  0  0  0  0  0  0  0  0  0  0
   -3.0310   -3.1744    0.5672 C   0  0  0  0  0  0  0  0  0  0  0  0
   -2.7094   -2.2302   -0.5242 C   0  0  0  0  0  0  0  0  0  0  0  0
   -3.4813   -0.9641   -0.6675 C   0  0  0  0  0  0  0  0  0  0  0  0
   -2.8462   -0.2040   -1.8932 C   0  0  0  0  0  0  0  0  0  0  0  0
   -3.5711    1.0617   -2.1384 C   0  0  0  0  0  0  0  0  0  0  0  0
   -3.0186    1.9281   -3.1885 C   0  0  0  0  0  0  0  0  0  0  0  0
   -2.8142    1.4724   -4.5710 C   0  0  0  0  0  0  0  0  0  0  0  0
   -1.7716    0.4395   -4.8340 C   0  0  0  0  0  0  0  0  0  0  0  0
   -1.7094    0.0711   -6.3259 C   0  0  0  0  0  0  0  0  0  0  0  0
   -0.6405   -0.9635   -6.5631 C   0  0  0  0  0  0  0  0  0  0  0  0
    0.7332   -0.4696   -6.1586 C   0  0  0  0  0  0  0  0  0  0  0  0
    1.3889   -2.2146    3.2931 C   0  0  1  0  0  0  0  0  0  0  0  0
    2.2169   -1.3339    2.3243 C   0  0  0  0  0  0  0  0  0  0  0  0
    3.6283   -1.2855    2.7248 C   0  0  0  0  0  0  0  0  0  0  0  0
    4.5576   -0.3849    2.0462 C   0  0  0  0  0  0  0  0  0  0  0  0
    4.9375   -0.2996    0.6639 C   0  0  0  0  0  0  0  0  0  0  0  0
    4.1154    0.0918   -0.4730 C   0  0  0  0  0  0  0  0  0  0  0  0
    2.9327   -0.6247   -0.9435 C   0  0  0  0  0  0  0  0  0  0  0  0
    3.2304   -2.0776   -1.3236 C   0  0  0  0  0  0  0  0  0  0  0  0
    2.0158   -2.8182   -1.7979 C   0  0  0  0  0  0  0  0  0  0  0  0
    2.2022   -4.1907   -2.2611 C   0  0  0  0  0  0  0  0  0  0  0  0
    2.7572   -4.6025   -3.5395 C   0  0  0  0  0  0  0  0  0  0  0  0
    3.9995   -4.0456   -4.0744 C   0  0  0  0  0  0  0  0  0  0  0  0
    3.9049   -2.6360   -4.6511 C   0  0  0  0  0  0  0  0  0  0  0  0
    5.3014   -2.2337   -5.0548 C   0  0  0  0  0  0  0  0  0  0  0  0
    5.2968   -0.8643   -5.6362 C   0  0  0  0  0  0  0  0  0  0  0  0
    4.8000    0.1718   -4.6774 C   0  0  0  0  0  0  0  0  0  0  0  0
    4.8683    1.5132   -5.4126 C   0  0  0  0  0  0  0  0  0  0  0  0
    4.3821    2.6401   -4.5316 C   0  0  0  0  0  0  0  0  0  0  0  0
    0.8615    5.7055    5.3014 N   0  0  2  0  0  0  0  0  0  0  0  0
    0.0778   -2.1859    2.8300 O   0  0  0  0  0  0  0  0  0  0  0  0
   -2.6635   -1.6930    5.0279 O   0  0  0  0  0  0  0  0  0  0  0  0
   -3.2918   -1.2535    7.1809 O   0  0  0  0  0  0  0  0  0  0  0  0
    1.8960   -3.4840    3.3210 O   0  0  0  0  0  0  0  0  0  0  0  0
   -0.5762    1.7191    1.3936 O   0  0  0  0  0  0  0  0  0  0  0  0
   -2.7274    3.1005    2.0549 O   0  0  0  0  0  0  0  0  0  0  0  0
   -0.7461    0.6415    2.5373 O   0  0  0  0  0  0  0  0  0  0  0  0
   -1.5238    3.3518    3.9029 O   0  0  0  0  0  0  0  0  0  0  0  0
   -1.5101    2.1411    2.7146 P   0  0  0  0  0  0  0  0  0  0  0  0
   -2.2639   -0.6171    2.2569 H   0  0  0  0  0  0  0  0  0  0  0  0
   -2.1775    0.1377    3.8355 H   0  0  0  0  0  0  0  0  0  0  0  0
   -0.1073   -1.0611    4.4530 H   0  0  0  0  0  0  0  0  0  0  0  0
   -2.1341   -3.1830    3.7580 H   0  0  0  0  0  0  0  0  0  0  0  0
   -1.0505   -2.9781    5.1317 H   0  0  0  0  0  0  0  0  0  0  0  0
   -0.6777    4.9696    3.0752 H   0  0  0  0  0  0  0  0  0  0  0  0
    0.4913    3.6230    3.5263 H   0  0  0  0  0  0  0  0  0  0  0  0
   -1.1910    5.3252    5.4828 H   0  0  0  0  0  0  0  0  0  0  0  0
   -0.0219    3.9508    5.8830 H   0  0  0  0  0  0  0  0  0  0  0  0
    2.0670    3.9544    5.5516 H   0  0  0  0  0  0  0  0  0  0  0  0
    2.1925    4.7440    3.9386 H   0  0  0  0  0  0  0  0  0  0  0  0
    2.9805    5.5152    5.3374 H   0  0  0  0  0  0  0  0  0  0  0  0
    1.5876    5.4965    7.2319 H   0  0  0  0  0  0  0  0  0  0  0  0
   -0.0091    6.3640    7.0445 H   0  0  0  0  0  0  0  0  0  0  0  0
    1.5389    7.2065    6.5783 H   0  0  0  0  0  0  0  0  0  0  0  0
    0.9121    6.2830    3.3037 H   0  0  0  0  0  0  0  0  0  0  0  0
   -0.0337    7.3834    4.3549 H   0  0  0  0  0  0  0  0  0  0  0  0
    1.7940    7.3562    4.4936 H   0  0  0  0  0  0  0  0  0  0  0  0
   -3.3059   -3.0604    6.3419 H   0  0  0  0  0  0  0  0  0  0  0  0
   -5.4044   -1.0256    5.3978 H   0  0  0  0  0  0  0  0  0  0  0  0
   -5.4619   -2.0961    6.7800 H   0  0  0  0  0  0  0  0  0  0  0  0
   -5.5200   -4.0621    5.4936 H   0  0  0  0  0  0  0  0  0  0  0  0
   -6.7932   -2.9354    5.0538 H   0  0  0  0  0  0  0  0  0  0  0  0
   -4.3737   -3.7941    3.3932 H   0  0  0  0  0  0  0  0  0  0  0  0
   -6.0808   -4.2919    3.2453 H   0  0  0  0  0  0  0  0  0  0  0  0
   -4.8976   -1.4992    2.5329 H   0  0  0  0  0  0  0  0  0  0  0  0
   -6.6266   -1.9229    2.5387 H   0  0  0  0  0  0  0  0  0  0  0  0
   -5.9283   -2.2906    0.3523 H   0  0  0  0  0  0  0  0  0  0  0  0
   -6.4022   -3.7896    1.1520 H   0  0  0  0  0  0  0  0  0  0  0  0
   -4.3235   -4.7190    1.3463 H   0  0  0  0  0  0  0  0  0  0  0  0
   -4.5973   -4.2379   -0.3141 H   0  0  0  0  0  0  0  0  0  0  0  0
   -2.3075   -4.0687    0.4186 H   0  0  0  0  0  0  0  0  0  0  0  0
   -2.6205   -2.7343    1.5112 H   0  0  0  0  0  0  0  0  0  0  0  0
   -1.6146   -1.9111   -0.3539 H   0  0  0  0  0  0  0  0  0  0  0  0
   -2.6326   -2.7773   -1.5119 H   0  0  0  0  0  0  0  0  0  0  0  0
   -4.5403   -1.1340   -0.9209 H   0  0  0  0  0  0  0  0  0  0  0  0
   -3.3034   -0.2983    0.1716 H   0  0  0  0  0  0  0  0  0  0  0  0
   -3.1653   -0.9171   -2.7137 H   0  0  0  0  0  0  0  0  0  0  0  0
   -1.7761   -0.1803   -1.8394 H   0  0  0  0  0  0  0  0  0  0  0  0
   -4.6776    0.8736   -2.3063 H   0  0  0  0  0  0  0  0  0  0  0  0
   -3.4892    1.6542   -1.1686 H   0  0  0  0  0  0  0  0  0  0  0  0
   -3.6113    2.9124   -3.1638 H   0  0  0  0  0  0  0  0  0  0  0  0
   -2.0037    2.2889   -2.8182 H   0  0  0  0  0  0  0  0  0  0  0  0
   -3.8153    1.1579   -5.0237 H   0  0  0  0  0  0  0  0  0  0  0  0
   -2.5649    2.3900   -5.2027 H   0  0  0  0  0  0  0  0  0  0  0  0
   -1.7300   -0.4301   -4.2183 H   0  0  0  0  0  0  0  0  0  0  0  0
   -0.7567    0.9582   -4.6795 H   0  0  0  0  0  0  0  0  0  0  0  0
   -1.5637    0.9293   -6.9753 H   0  0  0  0  0  0  0  0  0  0  0  0
   -2.6803   -0.4179   -6.5554 H   0  0  0  0  0  0  0  0  0  0  0  0
   -0.8749   -1.8576   -5.9356 H   0  0  0  0  0  0  0  0  0  0  0  0
   -0.5915   -1.2495   -7.6178 H   0  0  0  0  0  0  0  0  0  0  0  0
    0.7963    0.5833   -6.4677 H   0  0  0  0  0  0  0  0  0  0  0  0
    0.7895   -0.5271   -5.0494 H   0  0  0  0  0  0  0  0  0  0  0  0
    1.5162   -1.1041   -6.6315 H   0  0  0  0  0  0  0  0  0  0  0  0
    1.4095   -1.6987    4.2831 H   0  0  0  0  0  0  0  0  0  0  0  0
    1.7510   -0.3650    2.2671 H   0  0  0  0  0  0  0  0  0  0  0  0
    2.1562   -1.9298    1.3552 H   0  0  0  0  0  0  0  0  0  0  0  0
    3.7364   -1.2042    3.8648 H   0  0  0  0  0  0  0  0  0  0  0  0
    4.0712   -2.3501    2.5859 H   0  0  0  0  0  0  0  0  0  0  0  0
    5.5371   -0.4771    2.7089 H   0  0  0  0  0  0  0  0  0  0  0  0
    4.3115    0.7138    2.3858 H   0  0  0  0  0  0  0  0  0  0  0  0
    5.5233   -1.2728    0.4084 H   0  0  0  0  0  0  0  0  0  0  0  0
    5.8482    0.4391    0.6330 H   0  0  0  0  0  0  0  0  0  0  0  0
    4.7744    0.2475   -1.4154 H   0  0  0  0  0  0  0  0  0  0  0  0
    3.7667    1.1899   -0.3237 H   0  0  0  0  0  0  0  0  0  0  0  0
    2.6533   -0.1031   -1.9495 H   0  0  0  0  0  0  0  0  0  0  0  0
    2.0065   -0.5792   -0.4060 H   0  0  0  0  0  0  0  0  0  0  0  0
    4.0601   -2.1286   -2.0036 H   0  0  0  0  0  0  0  0  0  0  0  0
    3.6324   -2.5933   -0.3772 H   0  0  0  0  0  0  0  0  0  0  0  0
    1.2819   -2.8341   -0.9256 H   0  0  0  0  0  0  0  0  0  0  0  0
    1.4474   -2.2189   -2.5604 H   0  0  0  0  0  0  0  0  0  0  0  0
    1.1824   -4.7414   -2.1762 H   0  0  0  0  0  0  0  0  0  0  0  0
    2.8016   -4.7871   -1.4517 H   0  0  0  0  0  0  0  0  0  0  0  0
    1.9142   -4.4920   -4.3312 H   0  0  0  0  0  0  0  0  0  0  0  0
    2.9315   -5.7581   -3.5032 H   0  0  0  0  0  0  0  0  0  0  0  0
    4.8097   -3.9739   -3.2864 H   0  0  0  0  0  0  0  0  0  0  0  0
    4.4858   -4.7189   -4.8450 H   0  0  0  0  0  0  0  0  0  0  0  0
    3.2949   -2.8199   -5.6164 H   0  0  0  0  0  0  0  0  0  0  0  0
    3.3285   -1.9305   -4.0883 H   0  0  0  0  0  0  0  0  0  0  0  0
    5.6520   -3.0125   -5.7646 H   0  0  0  0  0  0  0  0  0  0  0  0
    5.9929   -2.2484   -4.1715 H   0  0  0  0  0  0  0  0  0  0  0  0
    4.6497   -0.8359   -6.5461 H   0  0  0  0  0  0  0  0  0  0  0  0
    6.3601   -0.6211   -5.9157 H   0  0  0  0  0  0  0  0  0  0  0  0
    3.7424   -0.0030   -4.3847 H   0  0  0  0  0  0  0  0  0  0  0  0
    5.3880    0.1868   -3.7553 H   0  0  0  0  0  0  0  0  0  0  0  0
    4.2773    1.4225   -6.3372 H   0  0  0  0  0  0  0  0  0  0  0  0
    5.9311    1.6500   -5.6575 H   0  0  0  0  0  0  0  0  0  0  0  0
    4.7935    3.5933   -4.9034 H   0  0  0  0  0  0  0  0  0  0  0  0
    4.6481    2.4671   -3.4629 H   0  0  0  0  0  0  0  0  0  0  0  0
    3.2684    2.6596   -4.6275 H   0  0  0  0  0  0  0  0  0  0  0  0
   -2.3809   -1.5116    7.5007 H   0  0  0  0  0  0  0  0  0  0  0  0
    2.0240   -3.8014    4.2565 H   0  0  0  0  0  0  0  0  0  0  0  0
   -0.6593    2.4484    0.7242 H   0  0  0  0  0  0  0  0  0  0  0  0
   -2.5720    3.2718    1.0698 H   0  0  0  0  0  0  0  0  0  0  0  0
   -2.7003    2.4930    3.3503 H   0  0  0  0  0  0  0  0  0  0  0  0
  1  2  1  0
  1 52  1  0
  2  3  1  0
  2 46  1  0
  3 47  1  0
  4  5  1  0
  4 53  1  0
 45  5  1  1
  6 45  1  0
  7 45  1  0
  8 45  1  0
  9 10  1  0
  9 47  1  0
  9 48  1  0
 10 11  1  0
 11 12  1  0
 12 13  1  0
 13 14  1  0
 14 15  1  0
 15 16  1  0
 16 17  1  0
 17 18  1  0
 18 19  1  0
 19 20  1  0
 20 21  1  0
 21 22  1  0
 22 23  1  0
 23 24  1  0
 24 25  1  0
 25 26  1  0
 27 28  1  0
 27 46  1  0
 27 49  1  0
 28 29  1  0
 29 30  1  0
 30 31  1  0
 31 32  1  0
 32 33  1  0
 33 34  1  0
 34 35  1  0
 35 36  1  0
 36 37  1  0
 37 38  1  0
 38 39  1  0
 39 40  1  0
 40 41  1  0
 41 42  1  0
 42 43  1  0
 43 44  1  0
 50 54  1  0
 51 54  1  0
 52 54  1  0
 53 54  1  0
  1 55  1  0
  1 56  1  0
  2 57  1  1
  3 58  1  0
  3 59  1  0
  4 60  1  0
  4 61  1  0
  5 62  1  0
  5 63  1  0
  6 64  1  0
  6 65  1  0
  6 66  1  0
  7 67  1  0
  7 68  1  0
  7 69  1  0
  8 70  1  0
  8 71  1  0
  8 72  1  0
  9 73  1  0
 10 74  1  0
 10 75  1  0
 11 76  1  0
 11 77  1  0
 12 78  1  0
 12 79  1  0
 13 80  1  0
 13 81  1  0
 14 82  1  0
 14 83  1  0
 15 84  1  0
 15 85  1  0
 16 86  1  0
 16 87  1  0
 17 88  1  0
 17 89  1  0
 18 90  1  0
 18 91  1  0
 19 92  1  0
 19 93  1  0
 20 94  1  0
 20 95  1  0
 21 96  1  0
 21 97  1  0
 22 98  1  0
 22 99  1  0
 23100  1  0
 23101  1  0
 24102  1  0
 24103  1  0
 25104  1  0
 25105  1  0
 26106  1  0
 26107  1  0
 26108  1  0
 27109  1  1
 28110  1  0
 28111  1  0
 29112  1  0
 29113  1  0
 30114  1  0
 30115  1  0
 31116  1  0
 31117  1  0
 32118  1  0
 32119  1  0
 33120  1  0
 33121  1  0
 34122  1  0
 34123  1  0
 35124  1  0
 35125  1  0
 36126  1  0
 36127  1  0
 37128  1  0
 37129  1  0
 38130  1  0
 38131  1  0
 39132  1  0
 39133  1  0
 40134  1  0
 40135  1  0
 41136  1  0
 41137  1  0
 42138  1  0
 42139  1  0
 43140  1  0
 43141  1  0
 44142  1  0
 44143  1  0
 44144  1  0
 48145  1  0
 49146  1  0
 50147  1  0
 51148  1  0
 54149  1  0
M  CHG  1  45   1
M  END
$$$$
PHOSPHATIDYLCHOLINE TRANSFER PROTEIN
     RDKit          3D

149148  0  0  0  0  0  0  0  0999 V2000
   -0.7217   -4.0575    1.9709 C   0  0  0  0  0  0  0  0  0  0  0  0
   -0.3048   -2.6719    1.5843 C   0  0  1  0  0  0  0  0  0  0  0  0
   -1.2717   -2.0683    0.5854 C   0  0  0  0  0  0  0  0  0  0  0  0
   -0.6325   -6.5848   -1.2801 C   0  0  0  0  0  0  0  0  0  0  0  0
   -0.4511   -5.9587   -2.6342 C   0  0  0  0  0  0  0  0  0  0  0  0
    0.9682   -4.0259   -2.5647 C   0  0  0  0  0  0  0  0  0  0  0  0
    1.0412   -5.4781   -4.3624 C   0  0  0  0  0  0  0  0  0  0  0  0
    1.9100   -6.2197   -2.3304 C   0  0  0  0  0  0  0  0  0  0  0  0
   -2.1902   -1.9905   -1.4639 C   0  0  0  0  0  0  0  0  0  0  0  0
   -3.1666   -2.6662   -2.3525 C   0  0  0  0  0  0  0  0  0  0  0  0
   -3.9426   -1.5495   -3.0557 C   0  0  0  0  0  0  0  0  0  0  0  0
   -4.8973   -2.0051   -4.1115 C   0  0  0  0  0  0  0  0  0  0  0  0
   -5.5361   -0.7157   -4.6407 C   0  0  0  0  0  0  0  0  0  0  0  0
   -6.4633   -0.0712   -3.6502 C   0  0  0  0  0  0  0  0  0  0  0  0
   -6.9295    1.2695   -4.1005 C   0  0  0  0  0  0  0  0  0  0  0  0
   -5.9309    2.3604   -4.1926 C   0  0  0  0  0  0  0  0  0  0  0  0
   -5.3803    2.9283   -2.9295 C   0  0  0  0  0  0  0  0  0  0  0  0
   -4.7226    2.0810   -1.9411 C   0  0  0  0  0  0  0  0  0  0  0  0
   -4.2110    2.7929   -0.7181 C   0  0  0  0  0  0  0  0  0  0  0  0
   -3.1769    3.8183   -0.8445 C   0  0  0  0  0  0  0  0  0  0  0  0
   -1.8685    3.3008   -1.3693 C   0  0  0  0  0  0  0  0  0  0  0  0
   -0.7998    4.3332   -1.4521 C   0  0  0  0  0  0  0  0  0  0  0  0
   -1.1290    5.4634   -2.3849 C   0  0  0  0  0  0  0  0  0  0  0  0
   -1.3109    4.8533   -3.7726 C   0  0  0  0  0  0  0  0  0  0  0  0
   -1.6098    5.9341   -4.7729 C   0  0  0  0  0  0  0  0  0  0  0  0
   -0.5017    6.9256   -4.8711 C   0  0  0  0  0  0  0  0  0  0  0  0
    1.0262   -1.2108    2.7499 C   0  0  1  0  0  0  0  0  0  0  0  0
    1.4832   -0.7999    4.0764 C   0  0  0  0  0  0  0  0  0  0  0  0
    0.6187    0.2928    4.6875 C   0  0  0  0  0  0  0  0  0  0  0  0
    1.1981    0.6543    6.0140 C   0  0  0  0  0  0  0  0  0  0  0  0
    0.4406    1.7669    6.7041 C   0  0  0  0  0  0  0  0  0  0  0  0
    0.4239    3.0327    5.8951 C   0  0  0  0  0  0  0  0  0  0  0  0
    1.7516    3.6009    5.5539 C   0  0  0  0  0  0  0  0  0  0  0  0
    2.6661    3.9569    6.6404 C   0  0  0  0  0  0  0  0  0  0  0  0
    3.9542    4.5656    6.1429 C   0  0  0  0  0  0  0  0  0  0  0  0
    4.6157    3.5981    5.1698 C   0  0  0  0  0  0  0  0  0  0  0  0
    5.9582    4.1340    4.7042 C   0  0  0  0  0  0  0  0  0  0  0  0
    6.6059    3.1979    3.6670 C   0  0  0  0  0  0  0  0  0  0  0  0
    5.8258    3.1234    2.3965 C   0  0  0  0  0  0  0  0  0  0  0  0
    6.4482    2.1774    1.3611 C   0  0  0  0  0  0  0  0  0  0  0  0
    5.6076    2.2296    0.0777 C   0  0  0  0  0  0  0  0  0  0  0  0
    6.1561    1.2957   -0.9697 C   0  0  0  0  0  0  0  0  0  0  0  0
    6.1223   -0.1582   -0.5432 C   0  0  0  0  0  0  0  0  0  0  0  0
    4.6712   -0.5413   -0.3063 C   0  0  0  0  0  0  0  0  0  0  0  0
    0.8466   -5.4383   -2.9107 N   0  0  2  0  0  0  0  0  0  0  0  0
   -0.2819   -1.7557    2.6751 O   0  0  0  0  0  0  0  0  0  0  0  0
   -1.3451   -2.7239   -0.6631 O   0  0  0  0  0  0  0  0  0  0  0  0
   -1.3038   -1.2699   -2.3924 O   0  0  0  0  0  0  0  0  0  0  0  0
    1.0083   -0.0910    1.8416 O   0  0  0  0  0  0  0  0  0  0  0  0
   -2.6550   -6.1584    1.3848 O   0  0  0  0  0  0  0  0  0  0  0  0
   -0.8193   -7.6718    2.3456 O   0  0  0  0  0  0  0  0  0  0  0  0
   -0.7010   -4.8169    0.7995 O   0  0  0  0  0  0  0  0  0  0  0  0
   -0.4007   -5.7369   -0.2308 O   0  0  0  0  0  0  0  0  0  0  0  0
   -0.9825   -6.4086    1.2146 P   0  0  0  0  0  0  0  0  0  0  0  0
   -0.0373   -4.4955    2.7368 H   0  0  0  0  0  0  0  0  0  0  0  0
   -1.7021   -3.9903    2.4568 H   0  0  0  0  0  0  0  0  0  0  0  0
    0.7052   -2.6996    1.1811 H   0  0  0  0  0  0  0  0  0  0  0  0
   -2.3212   -2.1261    0.9737 H   0  0  0  0  0  0  0  0  0  0  0  0
   -1.0319   -1.0155    0.4351 H   0  0  0  0  0  0  0  0  0  0  0  0
   -1.7302   -6.8435   -1.2196 H   0  0  0  0  0  0  0  0  0  0  0  0
   -0.0927   -7.5432   -1.1868 H   0  0  0  0  0  0  0  0  0  0  0  0
   -0.6898   -6.7432   -3.3835 H   0  0  0  0  0  0  0  0  0  0  0  0
   -1.1969   -5.1531   -2.8234 H   0  0  0  0  0  0  0  0  0  0  0  0
    1.8535   -3.5625   -3.0526 H   0  0  0  0  0  0  0  0  0  0  0  0
    0.0813   -3.5376   -3.0237 H   0  0  0  0  0  0  0  0  0  0  0  0
    1.0748   -3.8832   -1.4900 H   0  0  0  0  0  0  0  0  0  0  0  0
    2.1207   -5.2973   -4.6089 H   0  0  0  0  0  0  0  0  0  0  0  0
    0.3606   -4.7831   -4.8975 H   0  0  0  0  0  0  0  0  0  0  0  0
    0.8069   -6.4984   -4.7420 H   0  0  0  0  0  0  0  0  0  0  0  0
    1.7245   -6.5455   -1.2885 H   0  0  0  0  0  0  0  0  0  0  0  0
    2.7913   -5.5383   -2.2703 H   0  0  0  0  0  0  0  0  0  0  0  0
    2.1998   -7.0259   -3.0268 H   0  0  0  0  0  0  0  0  0  0  0  0
   -2.6832   -1.1927   -0.8715 H   0  0  0  0  0  0  0  0  0  0  0  0
   -2.6516   -3.2187   -3.1683 H   0  0  0  0  0  0  0  0  0  0  0  0
   -3.8410   -3.3665   -1.8532 H   0  0  0  0  0  0  0  0  0  0  0  0
   -3.2092   -0.8599   -3.5732 H   0  0  0  0  0  0  0  0  0  0  0  0
   -4.4840   -1.0137   -2.2667 H   0  0  0  0  0  0  0  0  0  0  0  0
   -5.7009   -2.5984   -3.5709 H   0  0  0  0  0  0  0  0  0  0  0  0
   -4.4700   -2.5956   -4.9227 H   0  0  0  0  0  0  0  0  0  0  0  0
   -6.0815   -1.0408   -5.5592 H   0  0  0  0  0  0  0  0  0  0  0  0
   -4.7532   -0.0109   -4.9515 H   0  0  0  0  0  0  0  0  0  0  0  0
   -7.4359   -0.7261   -3.7584 H   0  0  0  0  0  0  0  0  0  0  0  0
   -6.1771   -0.2604   -2.6551 H   0  0  0  0  0  0  0  0  0  0  0  0
   -7.7819    1.6507   -3.4624 H   0  0  0  0  0  0  0  0  0  0  0  0
   -7.4260    1.1337   -5.1001 H   0  0  0  0  0  0  0  0  0  0  0  0
   -6.4575    3.1998   -4.7487 H   0  0  0  0  0  0  0  0  0  0  0  0
   -5.0928    2.1128   -4.9181 H   0  0  0  0  0  0  0  0  0  0  0  0
   -4.7538    3.8087   -3.2593 H   0  0  0  0  0  0  0  0  0  0  0  0
   -6.2609    3.4441   -2.4342 H   0  0  0  0  0  0  0  0  0  0  0  0
   -5.5409    1.4208   -1.4907 H   0  0  0  0  0  0  0  0  0  0  0  0
   -3.9673    1.4262   -2.3840 H   0  0  0  0  0  0  0  0  0  0  0  0
   -3.8100    1.9885   -0.0371 H   0  0  0  0  0  0  0  0  0  0  0  0
   -5.0750    3.2089   -0.1271 H   0  0  0  0  0  0  0  0  0  0  0  0
   -2.9583    4.1866    0.2073 H   0  0  0  0  0  0  0  0  0  0  0  0
   -3.5102    4.7542   -1.3482 H   0  0  0  0  0  0  0  0  0  0  0  0
   -1.5146    2.5536   -0.5932 H   0  0  0  0  0  0  0  0  0  0  0  0
   -1.9807    2.7024   -2.2921 H   0  0  0  0  0  0  0  0  0  0  0  0
   -0.6064    4.7378   -0.4313 H   0  0  0  0  0  0  0  0  0  0  0  0
    0.1455    3.8409   -1.8251 H   0  0  0  0  0  0  0  0  0  0  0  0
   -0.2965    6.2015   -2.3548 H   0  0  0  0  0  0  0  0  0  0  0  0
   -2.0565    5.9437   -2.0377 H   0  0  0  0  0  0  0  0  0  0  0  0
   -0.3709    4.3330   -4.0676 H   0  0  0  0  0  0  0  0  0  0  0  0
   -2.1861    4.1584   -3.7636 H   0  0  0  0  0  0  0  0  0  0  0  0
   -1.7288    5.4522   -5.7762 H   0  0  0  0  0  0  0  0  0  0  0  0
   -2.5858    6.4047   -4.4925 H   0  0  0  0  0  0  0  0  0  0  0  0
   -0.0341    6.9043   -5.9034 H   0  0  0  0  0  0  0  0  0  0  0  0
    0.3267    6.6330   -4.1935 H   0  0  0  0  0  0  0  0  0  0  0  0
   -0.8184    7.9820   -4.7227 H   0  0  0  0  0  0  0  0  0  0  0  0
    1.6552   -1.9344    2.1884 H   0  0  0  0  0  0  0  0  0  0  0  0
    2.4990   -0.3414    3.9926 H   0  0  0  0  0  0  0  0  0  0  0  0
    1.5854   -1.6280    4.8160 H   0  0  0  0  0  0  0  0  0  0  0  0
    0.6117    1.1932    4.0070 H   0  0  0  0  0  0  0  0  0  0  0  0
   -0.4323    0.0028    4.8245 H   0  0  0  0  0  0  0  0  0  0  0  0
    1.1459   -0.2363    6.6698 H   0  0  0  0  0  0  0  0  0  0  0  0
    2.2708    0.8857    5.8831 H   0  0  0  0  0  0  0  0  0  0  0  0
   -0.6281    1.4143    6.7395 H   0  0  0  0  0  0  0  0  0  0  0  0
    0.7670    1.8561    7.7352 H   0  0  0  0  0  0  0  0  0  0  0  0
   -0.1097    2.7911    4.9379 H   0  0  0  0  0  0  0  0  0  0  0  0
   -0.2214    3.7655    6.4133 H   0  0  0  0  0  0  0  0  0  0  0  0
    1.6429    4.4410    4.8487 H   0  0  0  0  0  0  0  0  0  0  0  0
    2.2789    2.7996    4.9214 H   0  0  0  0  0  0  0  0  0  0  0  0
    2.9723    3.1308    7.3100 H   0  0  0  0  0  0  0  0  0  0  0  0
    2.2266    4.7281    7.3324 H   0  0  0  0  0  0  0  0  0  0  0  0
    3.7698    5.5433    5.6438 H   0  0  0  0  0  0  0  0  0  0  0  0
    4.6477    4.6458    7.0142 H   0  0  0  0  0  0  0  0  0  0  0  0
    4.0070    3.5149    4.2335 H   0  0  0  0  0  0  0  0  0  0  0  0
    4.6902    2.5922    5.5982 H   0  0  0  0  0  0  0  0  0  0  0  0
    5.7984    5.1247    4.2151 H   0  0  0  0  0  0  0  0  0  0  0  0
    6.6738    4.1910    5.5481 H   0  0  0  0  0  0  0  0  0  0  0  0
    6.5112    2.1768    4.1595 H   0  0  0  0  0  0  0  0  0  0  0  0
    7.6776    3.3683    3.5658 H   0  0  0  0  0  0  0  0  0  0  0  0
    5.8674    4.1640    1.9447 H   0  0  0  0  0  0  0  0  0  0  0  0
    4.7951    2.7897    2.5751 H   0  0  0  0  0  0  0  0  0  0  0  0
    7.4881    2.4505    1.1217 H   0  0  0  0  0  0  0  0  0  0  0  0
    6.4387    1.1929    1.8250 H   0  0  0  0  0  0  0  0  0  0  0  0
    5.5991    3.2746   -0.2982 H   0  0  0  0  0  0  0  0  0  0  0  0
    4.5568    1.9582    0.2848 H   0  0  0  0  0  0  0  0  0  0  0  0
    7.2206    1.5587   -1.2130 H   0  0  0  0  0  0  0  0  0  0  0  0
    5.5649    1.4182   -1.9149 H   0  0  0  0  0  0  0  0  0  0  0  0
    6.6890   -0.2523    0.4201 H   0  0  0  0  0  0  0  0  0  0  0  0
    6.6061   -0.7759   -1.3230 H   0  0  0  0  0  0  0  0  0  0  0  0
    4.0183    0.2748   -0.6528 H   0  0  0  0  0  0  0  0  0  0  0  0
    4.4407   -1.4420   -0.9390 H   0  0  0  0  0  0  0  0  0  0  0  0
    4.5441   -0.8103    0.7599 H   0  0  0  0  0  0  0  0  0  0  0  0
   -1.4643   -0.3081   -2.2919 H   0  0  0  0  0  0  0  0  0  0  0  0
    0.1858    0.4195    1.9165 H   0  0  0  0  0  0  0  0  0  0  0  0
   -2.8874   -5.6046    2.1750 H   0  0  0  0  0  0  0  0  0  0  0  0
    0.1590   -7.7608    2.4899 H   0  0  0  0  0  0  0  0  0  0  0  0
   -1.9557   -7.3097    0.7721 H   0  0  0  0  0  0  0  0  0  0  0  0
  1  2  1  0
  1 52  1  0
  2  3  1  0
  2 46  1  0
  3 47  1  0
  4  5  1  0
  4 53  1  0
 45  5  1  6
  6 45  1  0
  7 45  1  0
  8 45  1  0
  9 10  1  0
  9 47  1  0
  9 48  1  0
 10 11  1  0
 11 12  1  0
 12 13  1  0
 13 14  1  0
 14 15  1  0
 15 16  1  0
 16 17  1  0
 17 18  1  0
 18 19  1  0
 19 20  1  0
 20 21  1  0
 21 22  1  0
 22 23  1  0
 23 24  1  0
 24 25  1  0
 25 26  1  0
 27 28  1  0
 27 46  1  0
 27 49  1  0
 28 29  1  0
 29 30  1  0
 30 31  1  0
 31 32  1  0
 32 33  1  0
 33 34  1  0
 34 35  1  0
 35 36  1  0
 36 37  1  0
 37 38  1  0
 38 39  1  0
 39 40  1  0
 40 41  1  0
 41 42  1  0
 42 43  1  0
 43 44  1  0
 50 54  1  0
 51 54  1  0
 52 54  1  0
 53 54  1  0
  1 55  1  0
  1 56  1  0
  2 57  1  6
  3 58  1  0
  3 59  1  0
  4 60  1  0
  4 61  1  0
  5 62  1  0
  5 63  1  0
  6 64  1  0
  6 65  1  0
  6 66  1  0
  7 67  1  0
  7 68  1  0
  7 69  1  0
  8 70  1  0
  8 71  1  0
  8 72  1  0
  9 73  1  0
 10 74  1  0
 10 75  1  0
 11 76  1  0
 11 77  1  0
 12 78  1  0
 12 79  1  0
 13 80  1  0
 13 81  1  0
 14 82  1  0
 14 83  1  0
 15 84  1  0
 15 85  1  0
 16 86  1  0
 16 87  1  0
 17 88  1  0
 17 89  1  0
 18 90  1  0
 18 91  1  0
 19 92  1  0
 19 93  1  0
 20 94  1  0
 20 95  1  0
 21 96  1  0
 21 97  1  0
 22 98  1  0
 22 99  1  0
 23100  1  0
 23101  1  0
 24102  1  0
 24103  1  0
 25104  1  0
 25105  1  0
 26106  1  0
 26107  1  0
 26108  1  0
 27109  1  6
 28110  1  0
 28111  1  0
 29112  1  0
 29113  1  0
 30114  1  0
 30115  1  0
 31116  1  0
 31117  1  0
 32118  1  0
 32119  1  0
 33120  1  0
 33121  1  0
 34122  1  0
 34123  1  0
 35124  1  0
 35125  1  0
 36126  1  0
 36127  1  0
 37128  1  0
 37129  1  0
 38130  1  0
 38131  1  0
 39132  1  0
 39133  1  0
 40134  1  0
 40135  1  0
 41136  1  0
 41137  1  0
 42138  1  0
 42139  1  0
 43140  1  0
 43141  1  0
 44142  1  0
 44143  1  0
 44144  1  0
 48145  1  0
 49146  1  0
 50147  1  0
 51148  1  0
 54149  1  0
M  CHG  1  45   1
M  END
$$$$
PHOSPHATIDYLCHOLINE TRANSFER PROTEIN
     RDKit          3D

149148  0  0  0  0  0  0  0  0999 V2000
   -1.9051    4.9097   -0.8348 C   0  0  0  0  0  0  0  0  0  0  0  0
   -2.2323    3.4357   -0.8470 C   0  0  1  0  0  0  0  0  0  0  0  0
   -1.7796    2.9469   -2.2755 C   0  0  0  0  0  0  0  0  0  0  0  0
    1.8888    6.4255   -2.9293 C   0  0  0  0  0  0  0  0  0  0  0  0
    2.6254    6.1027   -4.1986 C   0  0  0  0  0  0  0  0  0  0  0  0
    4.5363    6.4886   -2.7608 C   0  0  0  0  0  0  0  0  0  0  0  0
    4.8183    6.5951   -5.0699 C   0  0  0  0  0  0  0  0  0  0  0  0
    4.4101    4.5232   -4.0880 C   0  0  0  0  0  0  0  0  0  0  0  0
   -2.0241    0.9866   -3.5241 C   0  0  0  0  0  0  0  0  0  0  0  0
   -3.0033    1.1802   -4.7102 C   0  0  0  0  0  0  0  0  0  0  0  0
   -2.5809    0.2534   -5.8423 C   0  0  0  0  0  0  0  0  0  0  0  0
   -1.1362    0.4511   -6.2274 C   0  0  0  0  0  0  0  0  0  0  0  0
   -0.6995   -0.4774   -7.3544 C   0  0  0  0  0  0  0  0  0  0  0  0
    0.7890   -0.3368   -7.6404 C   0  0  0  0  0  0  0  0  0  0  0  0
    1.5839   -0.6679   -6.3752 C   0  0  0  0  0  0  0  0  0  0  0  0
    1.3066   -2.0424   -5.8839 C   0  0  0  0  0  0  0  0  0  0  0  0
    1.9995   -2.4213   -4.6036 C   0  0  0  0  0  0  0  0  0  0  0  0
    1.5501   -1.4842   -3.5035 C   0  0  0  0  0  0  0  0  0  0  0  0
    2.1466   -1.8907   -2.1564 C   0  0  0  0  0  0  0  0  0  0  0  0
    1.6413   -0.9271   -1.1154 C   0  0  0  0  0  0  0  0  0  0  0  0
    2.0591   -1.2159    0.2800 C   0  0  0  0  0  0  0  0  0  0  0  0
    3.5348   -1.2407    0.5280 C   0  0  0  0  0  0  0  0  0  0  0  0
    4.2512    0.0363    0.2433 C   0  0  0  0  0  0  0  0  0  0  0  0
    3.7792    1.2236    1.0592 C   0  0  0  0  0  0  0  0  0  0  0  0
    4.6355    2.4219    0.6509 C   0  0  0  0  0  0  0  0  0  0  0  0
    4.2515    3.6704    1.3785 C   0  0  0  0  0  0  0  0  0  0  0  0
   -2.0635    1.7450    0.9294 C   0  0  1  0  0  0  0  0  0  0  0  0
   -2.1140    2.1435    2.4184 C   0  0  0  0  0  0  0  0  0  0  0  0
   -2.3011    0.9233    3.3300 C   0  0  0  0  0  0  0  0  0  0  0  0
   -1.0560    0.1348    3.4666 C   0  0  0  0  0  0  0  0  0  0  0  0
   -1.0818   -1.1438    4.1972 C   0  0  0  0  0  0  0  0  0  0  0  0
   -1.6084   -1.1400    5.6080 C   0  0  0  0  0  0  0  0  0  0  0  0
   -1.4180   -2.5292    6.2107 C   0  0  0  0  0  0  0  0  0  0  0  0
   -1.9973   -2.7094    7.5773 C   0  0  0  0  0  0  0  0  0  0  0  0
   -1.6818   -4.0617    8.1523 C   0  0  0  0  0  0  0  0  0  0  0  0
   -2.0999   -5.2316    7.3408 C   0  0  0  0  0  0  0  0  0  0  0  0
   -3.5500   -5.3725    7.0464 C   0  0  0  0  0  0  0  0  0  0  0  0
   -3.7324   -6.6542    6.2356 C   0  0  0  0  0  0  0  0  0  0  0  0
   -5.1173   -6.9534    5.8636 C   0  0  0  0  0  0  0  0  0  0  0  0
   -5.9700   -6.0629    5.1087 C   0  0  0  0  0  0  0  0  0  0  0  0
   -5.7987   -5.5495    3.7615 C   0  0  0  0  0  0  0  0  0  0  0  0
   -4.7845   -4.6506    3.2568 C   0  0  0  0  0  0  0  0  0  0  0  0
   -3.3639   -5.0282    3.2665 C   0  0  0  0  0  0  0  0  0  0  0  0
   -3.0744   -6.3175    2.5079 C   0  0  0  0  0  0  0  0  0  0  0  0
    4.0578    5.9445   -4.0104 N   0  0  2  0  0  0  0  0  0  0  0  0
   -1.7945    2.6452    0.0650 O   0  0  0  0  0  0  0  0  0  0  0  0
   -2.4375    1.7701   -2.4925 O   0  0  0  0  0  0  0  0  0  0  0  0
   -1.9980   -0.3290   -3.2044 O   0  0  0  0  0  0  0  0  0  0  0  0
   -1.3318    0.6076    0.7791 O   0  0  0  0  0  0  0  0  0  0  0  0
   -1.2531    6.7824   -3.0105 O   0  0  0  0  0  0  0  0  0  0  0  0
   -0.6737    7.9529   -0.6970 O   0  0  0  0  0  0  0  0  0  0  0  0
   -0.5563    5.1558   -0.8660 O   0  0  0  0  0  0  0  0  0  0  0  0
    0.4988    6.5502   -3.1660 O   0  0  0  0  0  0  0  0  0  0  0  0
   -0.2694    6.6178   -1.6521 P   0  0  0  0  0  0  0  0  0  0  0  0
   -2.3730    5.4391    0.0070 H   0  0  0  0  0  0  0  0  0  0  0  0
   -2.3399    5.3514   -1.7787 H   0  0  0  0  0  0  0  0  0  0  0  0
   -3.3547    3.3722   -0.9682 H   0  0  0  0  0  0  0  0  0  0  0  0
   -0.6977    2.9452   -2.3398 H   0  0  0  0  0  0  0  0  0  0  0  0
   -2.1721    3.7137   -2.9739 H   0  0  0  0  0  0  0  0  0  0  0  0
    2.0988    5.7231   -2.1143 H   0  0  0  0  0  0  0  0  0  0  0  0
    2.2254    7.4293   -2.5861 H   0  0  0  0  0  0  0  0  0  0  0  0
    2.5245    6.9192   -4.9575 H   0  0  0  0  0  0  0  0  0  0  0  0
    2.2562    5.1729   -4.6823 H   0  0  0  0  0  0  0  0  0  0  0  0
    4.1104    5.9736   -1.8709 H   0  0  0  0  0  0  0  0  0  0  0  0
    5.6343    6.3815   -2.7080 H   0  0  0  0  0  0  0  0  0  0  0  0
    4.3414    7.5778   -2.7651 H   0  0  0  0  0  0  0  0  0  0  0  0
    4.4826    6.2316   -6.0732 H   0  0  0  0  0  0  0  0  0  0  0  0
    5.8699    6.2054   -4.9430 H   0  0  0  0  0  0  0  0  0  0  0  0
    4.8530    7.6811   -4.9599 H   0  0  0  0  0  0  0  0  0  0  0  0
    5.4563    4.3211   -3.8663 H   0  0  0  0  0  0  0  0  0  0  0  0
    4.1976    4.1916   -5.1315 H   0  0  0  0  0  0  0  0  0  0  0  0
    3.7608    3.9179   -3.4438 H   0  0  0  0  0  0  0  0  0  0  0  0
   -1.0196    1.3759   -3.9174 H   0  0  0  0  0  0  0  0  0  0  0  0
   -2.9674    2.2303   -5.0602 H   0  0  0  0  0  0  0  0  0  0  0  0
   -4.0395    0.9531   -4.4221 H   0  0  0  0  0  0  0  0  0  0  0  0
   -2.8088   -0.7932   -5.6292 H   0  0  0  0  0  0  0  0  0  0  0  0
   -3.1861    0.5266   -6.7512 H   0  0  0  0  0  0  0  0  0  0  0  0
   -0.5085    0.2620   -5.3275 H   0  0  0  0  0  0  0  0  0  0  0  0
   -0.9269    1.4868   -6.5570 H   0  0  0  0  0  0  0  0  0  0  0  0
   -1.0135   -1.5020   -7.1388 H   0  0  0  0  0  0  0  0  0  0  0  0
   -1.2256   -0.1961   -8.3056 H   0  0  0  0  0  0  0  0  0  0  0  0
    1.0530   -1.0755   -8.3937 H   0  0  0  0  0  0  0  0  0  0  0  0
    1.0031    0.7064   -7.8596 H   0  0  0  0  0  0  0  0  0  0  0  0
    1.3864    0.0915   -5.6423 H   0  0  0  0  0  0  0  0  0  0  0  0
    2.6791   -0.5954   -6.6237 H   0  0  0  0  0  0  0  0  0  0  0  0
    1.6443   -2.7455   -6.7059 H   0  0  0  0  0  0  0  0  0  0  0  0
    0.2029   -2.2871   -5.8029 H   0  0  0  0  0  0  0  0  0  0  0  0
    1.5868   -3.4281   -4.3267 H   0  0  0  0  0  0  0  0  0  0  0  0
    3.0878   -2.4194   -4.6748 H   0  0  0  0  0  0  0  0  0  0  0  0
    0.4613   -1.4597   -3.4333 H   0  0  0  0  0  0  0  0  0  0  0  0
    1.9277   -0.4805   -3.7982 H   0  0  0  0  0  0  0  0  0  0  0  0
    3.2502   -1.7456   -2.2498 H   0  0  0  0  0  0  0  0  0  0  0  0
    1.9860   -2.9485   -1.9332 H   0  0  0  0  0  0  0  0  0  0  0  0
    0.5649   -0.7943   -1.2011 H   0  0  0  0  0  0  0  0  0  0  0  0
    2.0901    0.0700   -1.3841 H   0  0  0  0  0  0  0  0  0  0  0  0
    1.6330   -0.4174    0.9331 H   0  0  0  0  0  0  0  0  0  0  0  0
    1.6613   -2.2250    0.5875 H   0  0  0  0  0  0  0  0  0  0  0  0
    3.7479   -1.5293    1.5853 H   0  0  0  0  0  0  0  0  0  0  0  0
    3.9678   -2.0013   -0.1762 H   0  0  0  0  0  0  0  0  0  0  0  0
    5.3296   -0.1007    0.4640 H   0  0  0  0  0  0  0  0  0  0  0  0
    4.1171    0.3157   -0.8235 H   0  0  0  0  0  0  0  0  0  0  0  0
    3.9610    1.0695    2.1425 H   0  0  0  0  0  0  0  0  0  0  0  0
    2.7225    1.4661    0.8857 H   0  0  0  0  0  0  0  0  0  0  0  0
    4.5411    2.5681   -0.4385 H   0  0  0  0  0  0  0  0  0  0  0  0
    5.6660    2.1425    0.9836 H   0  0  0  0  0  0  0  0  0  0  0  0
    4.4211    4.5398    0.7046 H   0  0  0  0  0  0  0  0  0  0  0  0
    4.8417    3.8058    2.3161 H   0  0  0  0  0  0  0  0  0  0  0  0
    3.1607    3.6177    1.5959 H   0  0  0  0  0  0  0  0  0  0  0  0
   -3.1814    1.3868    0.7516 H   0  0  0  0  0  0  0  0  0  0  0  0
   -1.1339    2.5860    2.7151 H   0  0  0  0  0  0  0  0  0  0  0  0
   -2.8854    2.8795    2.6262 H   0  0  0  0  0  0  0  0  0  0  0  0
   -2.5972    1.3002    4.3462 H   0  0  0  0  0  0  0  0  0  0  0  0
   -3.1410    0.3189    2.9421 H   0  0  0  0  0  0  0  0  0  0  0  0
   -0.3285    0.8152    4.1003 H   0  0  0  0  0  0  0  0  0  0  0  0
   -0.4918    0.0392    2.5232 H   0  0  0  0  0  0  0  0  0  0  0  0
   -1.5709   -1.9782    3.6349 H   0  0  0  0  0  0  0  0  0  0  0  0
   -0.0103   -1.5199    4.3024 H   0  0  0  0  0  0  0  0  0  0  0  0
   -1.0388   -0.4248    6.2451 H   0  0  0  0  0  0  0  0  0  0  0  0
   -2.6787   -0.9109    5.6828 H   0  0  0  0  0  0  0  0  0  0  0  0
   -0.3058   -2.7378    6.3118 H   0  0  0  0  0  0  0  0  0  0  0  0
   -1.7812   -3.3109    5.5353 H   0  0  0  0  0  0  0  0  0  0  0  0
   -3.1052   -2.5612    7.6049 H   0  0  0  0  0  0  0  0  0  0  0  0
   -1.5829   -1.9527    8.3080 H   0  0  0  0  0  0  0  0  0  0  0  0
   -2.2200   -4.1344    9.1302 H   0  0  0  0  0  0  0  0  0  0  0  0
   -0.6016   -4.1118    8.4280 H   0  0  0  0  0  0  0  0  0  0  0  0
   -1.7684   -6.1588    7.8875 H   0  0  0  0  0  0  0  0  0  0  0  0
   -1.4756   -5.2466    6.3989 H   0  0  0  0  0  0  0  0  0  0  0  0
   -3.9433   -4.5125    6.4435 H   0  0  0  0  0  0  0  0  0  0  0  0
   -4.1721   -5.4671    7.9472 H   0  0  0  0  0  0  0  0  0  0  0  0
   -2.9483   -6.7376    5.4973 H   0  0  0  0  0  0  0  0  0  0  0  0
   -3.4661   -7.4860    7.0222 H   0  0  0  0  0  0  0  0  0  0  0  0
   -5.6819   -7.2673    6.8295 H   0  0  0  0  0  0  0  0  0  0  0  0
   -5.0825   -7.9494    5.2646 H   0  0  0  0  0  0  0  0  0  0  0  0
   -6.1743   -5.1163    5.7589 H   0  0  0  0  0  0  0  0  0  0  0  0
   -7.0640   -6.5179    5.1791 H   0  0  0  0  0  0  0  0  0  0  0  0
   -6.8200   -5.0460    3.4452 H   0  0  0  0  0  0  0  0  0  0  0  0
   -5.8473   -6.4726    3.0272 H   0  0  0  0  0  0  0  0  0  0  0  0
   -4.8737   -3.6603    3.8278 H   0  0  0  0  0  0  0  0  0  0  0  0
   -5.0163   -4.3163    2.1820 H   0  0  0  0  0  0  0  0  0  0  0  0
   -2.8286   -4.1839    2.6602 H   0  0  0  0  0  0  0  0  0  0  0  0
   -2.8857   -4.9398    4.2352 H   0  0  0  0  0  0  0  0  0  0  0  0
   -2.0925   -6.7500    2.8084 H   0  0  0  0  0  0  0  0  0  0  0  0
   -3.0473   -6.0948    1.4004 H   0  0  0  0  0  0  0  0  0  0  0  0
   -3.8502   -7.0637    2.7245 H   0  0  0  0  0  0  0  0  0  0  0  0
   -2.1240   -0.5835   -2.2779 H   0  0  0  0  0  0  0  0  0  0  0  0
   -1.6368    0.1645   -0.0553 H   0  0  0  0  0  0  0  0  0  0  0  0
   -1.8309    7.6112   -2.9451 H   0  0  0  0  0  0  0  0  0  0  0  0
   -0.9485    8.6636   -1.3242 H   0  0  0  0  0  0  0  0  0  0  0  0
   -0.2921    5.7571   -2.7812 H   0  0  0  0  0  0  0  0  0  0  0  0
  1  2  1  0
  1 52  1  0
  2  3  1  0
  2 46  1  0
  3 47  1  0
  4  5  1  0
  4 53  1  0
 45  5  1  6
  6 45  1  0
  7 45  1  0
  8 45  1  0
  9 10  1  0
  9 47  1  0
  9 48  1  0
 10 11  1  0
 11 12  1  0
 12 13  1  0
 13 14  1  0
 14 15  1  0
 15 16  1  0
 16 17  1  0
 17 18  1  0
 18 19  1  0
 19 20  1  0
 20 21  1  0
 21 22  1  0
 22 23  1  0
 23 24  1  0
 24 25  1  0
 25 26  1  0
 27 28  1  0
 27 46  1  0
 27 49  1  0
 28 29  1  0
 29 30  1  0
 30 31  1  0
 31 32  1  0
 32 33  1  0
 33 34  1  0
 34 35  1  0
 35 36  1  0
 36 37  1  0
 37 38  1  0
 38 39  1  0
 39 40  1  0
 40 41  1  0
 41 42  1  0
 42 43  1  0
 43 44  1  0
 50 54  1  0
 51 54  1  0
 52 54  1  0
 53 54  1  0
  1 55  1  0
  1 56  1  0
  2 57  1  6
  3 58  1  0
  3 59  1  0
  4 60  1  0
  4 61  1  0
  5 62  1  0
  5 63  1  0
  6 64  1  0
  6 65  1  0
  6 66  1  0
  7 67  1  0
  7 68  1  0
  7 69  1  0
  8 70  1  0
  8 71  1  0
  8 72  1  0
  9 73  1  0
 10 74  1  0
 10 75  1  0
 11 76  1  0
 11 77  1  0
 12 78  1  0
 12 79  1  0
 13 80  1  0
 13 81  1  0
 14 82  1  0
 14 83  1  0
 15 84  1  0
 15 85  1  0
 16 86  1  0
 16 87  1  0
 17 88  1  0
 17 89  1  0
 18 90  1  0
 18 91  1  0
 19 92  1  0
 19 93  1  0
 20 94  1  0
 20 95  1  0
 21 96  1  0
 21 97  1  0
 22 98  1  0
 22 99  1  0
 23100  1  0
 23101  1  0
 24102  1  0
 24103  1  0
 25104  1  0
 25105  1  0
 26106  1  0
 26107  1  0
 26108  1  0
 27109  1  6
 28110  1  0
 28111  1  0
 29112  1  0
 29113  1  0
 30114  1  0
 30115  1  0
 31116  1  0
 31117  1  0
 32118  1  0
 32119  1  0
 33120  1  0
 33121  1  0
 34122  1  0
 34123  1  0
 35124  1  0
 35125  1  0
 36126  1  0
 36127  1  0
 37128  1  0
 37129  1  0
 38130  1  0
 38131  1  0
 39132  1  0
 39133  1  0
 40134  1  0
 40135  1  0
 41136  1  0
 41137  1  0
 42138  1  0
 42139  1  0
 43140  1  0
 43141  1  0
 44142  1  0
 44143  1  0
 44144  1  0
 48145  1  0
 49146  1  0
 50147  1  0
 51148  1  0
 54149  1  0
M  CHG  1  45   1
M  END
$$$$
PHOSPHATIDYLCHOLINE TRANSFER PROTEIN
     RDKit          3D

149148  0  0  0  0  0  0  0  0999 V2000
    2.3091    1.8193    1.8279 C   0  0  0  0  0  0  0  0  0  0  0  0
    2.5133    1.5078    3.2665 C   0  0  1  0  0  0  0  0  0  0  0  0
    3.9720    1.4562    3.6183 C   0  0  0  0  0  0  0  0  0  0  0  0
    3.7751    2.5460   -1.5532 C   0  0  0  0  0  0  0  0  0  0  0  0
    4.2147    3.7119   -2.4109 C   0  0  0  0  0  0  0  0  0  0  0  0
    3.8862    5.9360   -3.0547 C   0  0  0  0  0  0  0  0  0  0  0  0
    4.3623    5.5063   -0.8252 C   0  0  0  0  0  0  0  0  0  0  0  0
    2.2488    4.9428   -1.7506 C   0  0  0  0  0  0  0  0  0  0  0  0
    5.3059    0.1616    2.0499 C   0  0  0  0  0  0  0  0  0  0  0  0
    5.0825   -1.3642    1.9708 C   0  0  0  0  0  0  0  0  0  0  0  0
    5.5734   -2.0108    0.7451 C   0  0  0  0  0  0  0  0  0  0  0  0
    4.8754   -1.5162   -0.4913 C   0  0  0  0  0  0  0  0  0  0  0  0
    5.3955   -2.2146   -1.7252 C   0  0  0  0  0  0  0  0  0  0  0  0
    4.6355   -1.7260   -2.9918 C   0  0  0  0  0  0  0  0  0  0  0  0
    5.1728   -2.4390   -4.1786 C   0  0  0  0  0  0  0  0  0  0  0  0
    4.6273   -2.2374   -5.5161 C   0  0  0  0  0  0  0  0  0  0  0  0
    4.6381   -0.9387   -6.1966 C   0  0  0  0  0  0  0  0  0  0  0  0
    3.8622    0.2004   -5.6520 C   0  0  0  0  0  0  0  0  0  0  0  0
    2.3683   -0.1091   -5.5744 C   0  0  0  0  0  0  0  0  0  0  0  0
    1.5994    1.0508   -5.0241 C   0  0  0  0  0  0  0  0  0  0  0  0
    0.1299    0.8097   -4.9556 C   0  0  0  0  0  0  0  0  0  0  0  0
   -0.1789   -0.3728   -4.1034 C   0  0  0  0  0  0  0  0  0  0  0  0
   -1.6385   -0.6376   -3.9438 C   0  0  0  0  0  0  0  0  0  0  0  0
   -2.4030   -0.8999   -5.1975 C   0  0  0  0  0  0  0  0  0  0  0  0
   -3.8806   -1.1527   -4.8956 C   0  0  0  0  0  0  0  0  0  0  0  0
   -4.4876    0.0504   -4.1990 C   0  0  0  0  0  0  0  0  0  0  0  0
    1.0343    2.2220    4.9119 C   0  0  1  0  0  0  0  0  0  0  0  0
   -0.3069    2.7026    4.4899 C   0  0  0  0  0  0  0  0  0  0  0  0
   -1.4678    2.3391    5.3541 C   0  0  0  0  0  0  0  0  0  0  0  0
   -1.6916    0.8847    5.5749 C   0  0  0  0  0  0  0  0  0  0  0  0
   -1.8526    0.1480    4.2725 C   0  0  0  0  0  0  0  0  0  0  0  0
   -2.1085   -1.3050    4.6389 C   0  0  0  0  0  0  0  0  0  0  0  0
   -2.2011   -2.2329    3.4937 C   0  0  0  0  0  0  0  0  0  0  0  0
   -3.3196   -1.8838    2.4925 C   0  0  0  0  0  0  0  0  0  0  0  0
   -3.3031   -2.8505    1.3776 C   0  0  0  0  0  0  0  0  0  0  0  0
   -4.1472   -2.7664    0.2026 C   0  0  0  0  0  0  0  0  0  0  0  0
   -5.5950   -2.7841    0.0981 C   0  0  0  0  0  0  0  0  0  0  0  0
   -6.5449   -1.7718    0.5189 C   0  0  0  0  0  0  0  0  0  0  0  0
   -6.6711   -1.3082    1.9388 C   0  0  0  0  0  0  0  0  0  0  0  0
   -7.8400   -0.3521    1.9812 C   0  0  0  0  0  0  0  0  0  0  0  0
   -8.2711    0.2195    3.2406 C   0  0  0  0  0  0  0  0  0  0  0  0
   -7.4415    1.0822    4.0942 C   0  0  0  0  0  0  0  0  0  0  0  0
   -6.2055    0.5703    4.7082 C   0  0  0  0  0  0  0  0  0  0  0  0
   -5.5473    1.6698    5.5856 C   0  0  0  0  0  0  0  0  0  0  0  0
    3.6676    4.9738   -1.9798 N   0  0  2  0  0  0  0  0  0  0  0  0
    2.0424    2.6159    4.0352 O   0  0  0  0  0  0  0  0  0  0  0  0
    4.7982    0.5533    3.2046 O   0  0  0  0  0  0  0  0  0  0  0  0
    6.7495    0.3121    2.0811 O   0  0  0  0  0  0  0  0  0  0  0  0
    1.3258    2.4671    6.2232 O   0  0  0  0  0  0  0  0  0  0  0  0
    1.4540   -0.4872   -0.7116 O   0  0  0  0  0  0  0  0  0  0  0  0
    0.8491    1.9204   -1.4797 O   0  0  0  0  0  0  0  0  0  0  0  0
    2.5911    0.7427    1.0196 O   0  0  0  0  0  0  0  0  0  0  0  0
    2.4184    2.3680   -1.5375 O   0  0  0  0  0  0  0  0  0  0  0  0
    1.9898    1.1053   -0.5315 P   0  0  0  0  0  0  0  0  0  0  0  0
    1.3098    2.2532    1.6025 H   0  0  0  0  0  0  0  0  0  0  0  0
    3.0218    2.6466    1.5087 H   0  0  0  0  0  0  0  0  0  0  0  0
    2.0269    0.5898    3.6022 H   0  0  0  0  0  0  0  0  0  0  0  0
    4.0667    1.5032    4.7759 H   0  0  0  0  0  0  0  0  0  0  0  0
    4.4144    2.5217    3.3997 H   0  0  0  0  0  0  0  0  0  0  0  0
    4.2354    1.6399   -2.0463 H   0  0  0  0  0  0  0  0  0  0  0  0
    4.2645    2.6416   -0.5775 H   0  0  0  0  0  0  0  0  0  0  0  0
    3.9678    3.5825   -3.4876 H   0  0  0  0  0  0  0  0  0  0  0  0
    5.3229    3.7836   -2.3147 H   0  0  0  0  0  0  0  0  0  0  0  0
    3.5174    5.4815   -3.9886 H   0  0  0  0  0  0  0  0  0  0  0  0
    4.9583    6.2003   -3.1676 H   0  0  0  0  0  0  0  0  0  0  0  0
    3.2403    6.8328   -2.8886 H   0  0  0  0  0  0  0  0  0  0  0  0
    4.7890    4.7153   -0.1883 H   0  0  0  0  0  0  0  0  0  0  0  0
    3.6690    6.0968   -0.1872 H   0  0  0  0  0  0  0  0  0  0  0  0
    5.1835    6.2036   -1.1109 H   0  0  0  0  0  0  0  0  0  0  0  0
    2.0927    4.6159   -0.7192 H   0  0  0  0  0  0  0  0  0  0  0  0
    1.8334    5.9898   -1.8241 H   0  0  0  0  0  0  0  0  0  0  0  0
    1.7054    4.3598   -2.5111 H   0  0  0  0  0  0  0  0  0  0  0  0
    5.0519    0.6738    1.1312 H   0  0  0  0  0  0  0  0  0  0  0  0
    5.5620   -1.7487    2.9018 H   0  0  0  0  0  0  0  0  0  0  0  0
    3.9850   -1.5224    2.1547 H   0  0  0  0  0  0  0  0  0  0  0  0
    6.6792   -1.9571    0.6439 H   0  0  0  0  0  0  0  0  0  0  0  0
    5.3390   -3.1148    0.8219 H   0  0  0  0  0  0  0  0  0  0  0  0
    4.9552   -0.4339   -0.6218 H   0  0  0  0  0  0  0  0  0  0  0  0
    3.8036   -1.8341   -0.3740 H   0  0  0  0  0  0  0  0  0  0  0  0
    6.4733   -2.0629   -1.8712 H   0  0  0  0  0  0  0  0  0  0  0  0
    5.1973   -3.3074   -1.7034 H   0  0  0  0  0  0  0  0  0  0  0  0
    4.7472   -0.6330   -2.9748 H   0  0  0  0  0  0  0  0  0  0  0  0
    3.5873   -2.0335   -2.8032 H   0  0  0  0  0  0  0  0  0  0  0  0
    6.3090   -2.2566   -4.2203 H   0  0  0  0  0  0  0  0  0  0  0  0
    5.1682   -3.5647   -3.9391 H   0  0  0  0  0  0  0  0  0  0  0  0
    3.5949   -2.7270   -5.5640 H   0  0  0  0  0  0  0  0  0  0  0  0
    5.2160   -2.9571   -6.2020 H   0  0  0  0  0  0  0  0  0  0  0  0
    5.7146   -0.5770   -6.2642 H   0  0  0  0  0  0  0  0  0  0  0  0
    4.3772   -1.0482   -7.3087 H   0  0  0  0  0  0  0  0  0  0  0  0
    4.2630    0.6313   -4.7422 H   0  0  0  0  0  0  0  0  0  0  0  0
    3.9602    1.0276   -6.4397 H   0  0  0  0  0  0  0  0  0  0  0  0
    1.9711   -0.4319   -6.5390 H   0  0  0  0  0  0  0  0  0  0  0  0
    2.2914   -0.9587   -4.8472 H   0  0  0  0  0  0  0  0  0  0  0  0
    1.8242    1.9553   -5.6659 H   0  0  0  0  0  0  0  0  0  0  0  0
    1.9769    1.3495   -4.0162 H   0  0  0  0  0  0  0  0  0  0  0  0
   -0.2586    0.7033   -5.9909 H   0  0  0  0  0  0  0  0  0  0  0  0
   -0.3309    1.7223   -4.4939 H   0  0  0  0  0  0  0  0  0  0  0  0
    0.2315   -0.1751   -3.0968 H   0  0  0  0  0  0  0  0  0  0  0  0
    0.3559   -1.2799   -4.4813 H   0  0  0  0  0  0  0  0  0  0  0  0
   -2.0942    0.2266   -3.3868 H   0  0  0  0  0  0  0  0  0  0  0  0
   -1.7438   -1.4999   -3.2461 H   0  0  0  0  0  0  0  0  0  0  0  0
   -2.0584   -1.7845   -5.7518 H   0  0  0  0  0  0  0  0  0  0  0  0
   -2.3704   -0.0347   -5.8827 H   0  0  0  0  0  0  0  0  0  0  0  0
   -4.3936   -1.3064   -5.8495 H   0  0  0  0  0  0  0  0  0  0  0  0
   -4.0148   -2.0320   -4.2486 H   0  0  0  0  0  0  0  0  0  0  0  0
   -4.3004    0.0502   -3.1115 H   0  0  0  0  0  0  0  0  0  0  0  0
   -4.1400    0.9865   -4.6850 H   0  0  0  0  0  0  0  0  0  0  0  0
   -5.5857   -0.0139   -4.3353 H   0  0  0  0  0  0  0  0  0  0  0  0
    0.9813    1.0951    4.7801 H   0  0  0  0  0  0  0  0  0  0  0  0
   -0.5771    2.4224    3.4514 H   0  0  0  0  0  0  0  0  0  0  0  0
   -0.2898    3.8355    4.4596 H   0  0  0  0  0  0  0  0  0  0  0  0
   -1.3121    2.8637    6.3334 H   0  0  0  0  0  0  0  0  0  0  0  0
   -2.4293    2.7552    4.9686 H   0  0  0  0  0  0  0  0  0  0  0  0
   -0.8602    0.4201    6.1431 H   0  0  0  0  0  0  0  0  0  0  0  0
   -2.6753    0.7497    6.1210 H   0  0  0  0  0  0  0  0  0  0  0  0
   -0.9420    0.2260    3.6519 H   0  0  0  0  0  0  0  0  0  0  0  0
   -2.6781    0.5220    3.6511 H   0  0  0  0  0  0  0  0  0  0  0  0
   -3.0876   -1.3195    5.1817 H   0  0  0  0  0  0  0  0  0  0  0  0
   -1.3425   -1.6723    5.3383 H   0  0  0  0  0  0  0  0  0  0  0  0
   -2.4302   -3.2505    3.9017 H   0  0  0  0  0  0  0  0  0  0  0  0
   -1.2549   -2.3033    2.9223 H   0  0  0  0  0  0  0  0  0  0  0  0
   -4.2581   -2.0791    3.0822 H   0  0  0  0  0  0  0  0  0  0  0  0
   -3.2003   -0.8617    2.1722 H   0  0  0  0  0  0  0  0  0  0  0  0
   -2.2071   -2.9544    0.9854 H   0  0  0  0  0  0  0  0  0  0  0  0
   -3.4282   -3.9177    1.7904 H   0  0  0  0  0  0  0  0  0  0  0  0
   -3.7133   -3.5630   -0.5503 H   0  0  0  0  0  0  0  0  0  0  0  0
   -3.7350   -1.8230   -0.3834 H   0  0  0  0  0  0  0  0  0  0  0  0
   -5.8010   -2.9204   -1.0563 H   0  0  0  0  0  0  0  0  0  0  0  0
   -5.9736   -3.8456    0.4575 H   0  0  0  0  0  0  0  0  0  0  0  0
   -7.6192   -2.0353    0.1969 H   0  0  0  0  0  0  0  0  0  0  0  0
   -6.3428   -0.8442   -0.1327 H   0  0  0  0  0  0  0  0  0  0  0  0
   -6.7128   -2.1066    2.6547 H   0  0  0  0  0  0  0  0  0  0  0  0
   -5.7763   -0.6473    2.1163 H   0  0  0  0  0  0  0  0  0  0  0  0
   -7.6390    0.4443    1.1994 H   0  0  0  0  0  0  0  0  0  0  0  0
   -8.7250   -0.9165    1.5402 H   0  0  0  0  0  0  0  0  0  0  0  0
   -8.6859   -0.6487    3.8947 H   0  0  0  0  0  0  0  0  0  0  0  0
   -9.2603    0.7750    3.0210 H   0  0  0  0  0  0  0  0  0  0  0  0
   -7.2386    2.0866    3.5770 H   0  0  0  0  0  0  0  0  0  0  0  0
   -8.1044    1.4300    4.9626 H   0  0  0  0  0  0  0  0  0  0  0  0
   -6.4584   -0.2696    5.3940 H   0  0  0  0  0  0  0  0  0  0  0  0
   -5.4029    0.2479    4.0632 H   0  0  0  0  0  0  0  0  0  0  0  0
   -4.8228    2.2174    4.9704 H   0  0  0  0  0  0  0  0  0  0  0  0
   -5.0290    1.1456    6.3983 H   0  0  0  0  0  0  0  0  0  0  0  0
   -6.3675    2.3275    5.9682 H   0  0  0  0  0  0  0  0  0  0  0  0
    7.0970   -0.0432    1.2246 H   0  0  0  0  0  0  0  0  0  0  0  0
    0.6673    3.0367    6.6631 H   0  0  0  0  0  0  0  0  0  0  0  0
    0.4652   -0.4821   -0.6994 H   0  0  0  0  0  0  0  0  0  0  0  0
   -0.0277    1.8125   -1.0381 H   0  0  0  0  0  0  0  0  0  0  0  0
    2.6469    0.3418   -1.4765 H   0  0  0  0  0  0  0  0  0  0  0  0
  1  2  1  0
  1 52  1  0
  2  3  1  0
  2 46  1  0
  3 47  1  0
  4  5  1  0
  4 53  1  0
 45  5  1  6
  6 45  1  0
  7 45  1  0
  8 45  1  0
  9 10  1  0
  9 47  1  0
  9 48  1  0
 10 11  1  0
 11 12  1  0
 12 13  1  0
 13 14  1  0
 14 15  1  0
 15 16  1  0
 16 17  1  0
 17 18  1  0
 18 19  1  0
 19 20  1  0
 20 21  1  0
 21 22  1  0
 22 23  1  0
 23 24  1  0
 24 25  1  0
 25 26  1  0
 27 28  1  0
 27 46  1  0
 27 49  1  0
 28 29  1  0
 29 30  1  0
 30 31  1  0
 31 32  1  0
 32 33  1  0
 33 34  1  0
 34 35  1  0
 35 36  1  0
 36 37  1  0
 37 38  1  0
 38 39  1  0
 39 40  1  0
 40 41  1  0
 41 42  1  0
 42 43  1  0
 43 44  1  0
 50 54  1  0
 51 54  1  0
 52 54  1  0
 53 54  1  0
  1 55  1  0
  1 56  1  0
  2 57  1  1
  3 58  1  0
  3 59  1  0
  4 60  1  0
  4 61  1  0
  5 62  1  0
  5 63  1  0
  6 64  1  0
  6 65  1  0
  6 66  1  0
  7 67  1  0
  7 68  1  0
  7 69  1  0
  8 70  1  0
  8 71  1  0
  8 72  1  0
  9 73  1  0
 10 74  1  0
 10 75  1  0
 11 76  1  0
 11 77  1  0
 12 78  1  0
 12 79  1  0
 13 80  1  0
 13 81  1  0
 14 82  1  0
 14 83  1  0
 15 84  1  0
 15 85  1  0
 16 86  1  0
 16 87  1  0
 17 88  1  0
 17 89  1  0
 18 90  1  0
 18 91  1  0
 19 92  1  0
 19 93  1  0
 20 94  1  0
 20 95  1  0
 21 96  1  0
 21 97  1  0
 22 98  1  0
 22 99  1  0
 23100  1  0
 23101  1  0
 24102  1  0
 24103  1  0
 25104  1  0
 25105  1  0
 26106  1  0
 26107  1  0
 26108  1  0
 27109  1  1
 28110  1  0
 28111  1  0
 29112  1  0
 29113  1  0
 30114  1  0
 30115  1  0
 31116  1  0
 31117  1  0
 32118  1  0
 32119  1  0
 33120  1  0
 33121  1  0
 34122  1  0
 34123  1  0
 35124  1  0
 35125  1  0
 36126  1  0
 36127  1  0
 37128  1  0
 37129  1  0
 38130  1  0
 38131  1  0
 39132  1  0
 39133  1  0
 40134  1  0
 40135  1  0
 41136  1  0
 41137  1  0
 42138  1  0
 42139  1  0
 43140  1  0
 43141  1  0
 44142  1  0
 44143  1  0
 44144  1  0
 48145  1  0
 49146  1  0
 50147  1  0
 51148  1  0
 54149  1  0
M  CHG  1  45   1
M  END
$$$$
PHOSPHATIDYLCHOLINE TRANSFER PROTEIN
     RDKit          3D

149148  0  0  0  0  0  0  0  0999 V2000
    1.1565   -0.4558   -4.0146 C   0  0  0  0  0  0  0  0  0  0  0  0
   -0.1655   -0.8780   -3.4998 C   0  0  1  0  0  0  0  0  0  0  0  0
   -1.2575    0.1532   -3.8468 C   0  0  0  0  0  0  0  0  0  0  0  0
    4.6423    1.5857   -1.5358 C   0  0  0  0  0  0  0  0  0  0  0  0
    5.8042    2.4322   -1.1796 C   0  0  0  0  0  0  0  0  0  0  0  0
    6.8272    1.3864    0.7262 C   0  0  0  0  0  0  0  0  0  0  0  0
    8.0315    2.8144   -0.6316 C   0  0  0  0  0  0  0  0  0  0  0  0
    7.4293    0.7379   -1.4690 C   0  0  0  0  0  0  0  0  0  0  0  0
   -1.8057    2.3254   -3.9493 C   0  0  0  0  0  0  0  0  0  0  0  0
   -1.7718    3.4368   -2.9711 C   0  0  0  0  0  0  0  0  0  0  0  0
   -2.9142    4.4102   -3.0252 C   0  0  0  0  0  0  0  0  0  0  0  0
   -4.2121    3.6669   -2.7106 C   0  0  0  0  0  0  0  0  0  0  0  0
   -4.0190    3.0679   -1.3467 C   0  0  0  0  0  0  0  0  0  0  0  0
   -5.3086    2.3381   -0.9423 C   0  0  0  0  0  0  0  0  0  0  0  0
   -4.9797    1.7562    0.4534 C   0  0  0  0  0  0  0  0  0  0  0  0
   -6.1776    1.0407    0.9512 C   0  0  0  0  0  0  0  0  0  0  0  0
   -5.9209    0.4249    2.2791 C   0  0  0  0  0  0  0  0  0  0  0  0
   -5.5304    1.5077    3.2960 C   0  0  0  0  0  0  0  0  0  0  0  0
   -5.3366    0.7892    4.5877 C   0  0  0  0  0  0  0  0  0  0  0  0
   -4.9770    1.5198    5.8065 C   0  0  0  0  0  0  0  0  0  0  0  0
   -3.7242    2.2330    5.9908 C   0  0  0  0  0  0  0  0  0  0  0  0
   -3.4000    3.3810    5.0859 C   0  0  0  0  0  0  0  0  0  0  0  0
   -4.4607    4.4122    5.1431 C   0  0  0  0  0  0  0  0  0  0  0  0
   -4.2931    5.6736    4.4047 C   0  0  0  0  0  0  0  0  0  0  0  0
   -4.0991    5.5800    2.9481 C   0  0  0  0  0  0  0  0  0  0  0  0
   -2.8161    4.9306    2.5243 C   0  0  0  0  0  0  0  0  0  0  0  0
   -0.9959   -2.8745   -2.5779 C   0  0  1  0  0  0  0  0  0  0  0  0
   -1.1223   -4.2977   -2.9338 C   0  0  0  0  0  0  0  0  0  0  0  0
   -1.5062   -5.2523   -1.8855 C   0  0  0  0  0  0  0  0  0  0  0  0
   -0.6516   -5.6651   -0.7833 C   0  0  0  0  0  0  0  0  0  0  0  0
   -0.0007   -4.5651   -0.0040 C   0  0  0  0  0  0  0  0  0  0  0  0
    0.6587   -5.1969    1.1945 C   0  0  0  0  0  0  0  0  0  0  0  0
    1.5289   -4.3992    2.0429 C   0  0  0  0  0  0  0  0  0  0  0  0
    1.1392   -3.1212    2.6185 C   0  0  0  0  0  0  0  0  0  0  0  0
    2.2432   -2.5800    3.4811 C   0  0  0  0  0  0  0  0  0  0  0  0
    3.5819   -2.4415    2.8701 C   0  0  0  0  0  0  0  0  0  0  0  0
    3.7586   -1.6354    1.6476 C   0  0  0  0  0  0  0  0  0  0  0  0
    5.2085   -1.5652    1.1948 C   0  0  0  0  0  0  0  0  0  0  0  0
    5.7205   -2.9374    0.9021 C   0  0  0  0  0  0  0  0  0  0  0  0
    5.0464   -3.6590   -0.2309 C   0  0  0  0  0  0  0  0  0  0  0  0
    5.2656   -3.0054   -1.5871 C   0  0  0  0  0  0  0  0  0  0  0  0
    6.7457   -2.9915   -1.9327 C   0  0  0  0  0  0  0  0  0  0  0  0
    6.9165   -2.3658   -3.2950 C   0  0  0  0  0  0  0  0  0  0  0  0
    6.1738   -3.1648   -4.3556 C   0  0  0  0  0  0  0  0  0  0  0  0
    6.9531    1.8061   -0.6340 N   0  0  2  0  0  0  0  0  0  0  0  0
   -0.6679   -2.1103   -3.6751 O   0  0  0  0  0  0  0  0  0  0  0  0
   -0.7091    1.4463   -3.7745 O   0  0  0  0  0  0  0  0  0  0  0  0
   -1.6224    2.9540   -5.2314 O   0  0  0  0  0  0  0  0  0  0  0  0
   -2.4651   -2.5013   -2.4381 O   0  0  0  0  0  0  0  0  0  0  0  0
    2.3827   -0.1430   -1.8996 O   0  0  0  0  0  0  0  0  0  0  0  0
    2.8148    1.7970   -3.6813 O   0  0  0  0  0  0  0  0  0  0  0  0
    2.2671   -1.0196   -3.3713 O   0  0  0  0  0  0  0  0  0  0  0  0
    4.8571    0.5971   -2.4851 O   0  0  0  0  0  0  0  0  0  0  0  0
    3.4023    0.2399   -3.2320 P   0  0  0  0  0  0  0  0  0  0  0  0
    1.2657   -0.6352   -5.1209 H   0  0  0  0  0  0  0  0  0  0  0  0
    1.2215    0.6465   -3.9177 H   0  0  0  0  0  0  0  0  0  0  0  0
   -0.0906   -0.7412   -2.3196 H   0  0  0  0  0  0  0  0  0  0  0  0
   -2.0984    0.1241   -3.1397 H   0  0  0  0  0  0  0  0  0  0  0  0
   -1.6123   -0.1110   -4.8493 H   0  0  0  0  0  0  0  0  0  0  0  0
    4.1203    1.1609   -0.6284 H   0  0  0  0  0  0  0  0  0  0  0  0
    3.8700    2.2791   -1.9616 H   0  0  0  0  0  0  0  0  0  0  0  0
    5.4105    3.2625   -0.5327 H   0  0  0  0  0  0  0  0  0  0  0  0
    6.1197    2.9640   -2.1195 H   0  0  0  0  0  0  0  0  0  0  0  0
    5.7867    1.2718    1.0848 H   0  0  0  0  0  0  0  0  0  0  0  0
    7.3078    0.3830    0.8118 H   0  0  0  0  0  0  0  0  0  0  0  0
    7.4017    2.0182    1.4591 H   0  0  0  0  0  0  0  0  0  0  0  0
    8.9772    2.2451   -0.5166 H   0  0  0  0  0  0  0  0  0  0  0  0
    7.9988    3.4719   -1.5028 H   0  0  0  0  0  0  0  0  0  0  0  0
    7.9247    3.4137    0.3191 H   0  0  0  0  0  0  0  0  0  0  0  0
    8.4550    0.3924   -1.1649 H   0  0  0  0  0  0  0  0  0  0  0  0
    7.5266    1.0301   -2.5233 H   0  0  0  0  0  0  0  0  0  0  0  0
    6.7920   -0.1634   -1.3583 H   0  0  0  0  0  0  0  0  0  0  0  0
   -2.7690    1.8254   -3.9926 H   0  0  0  0  0  0  0  0  0  0  0  0
   -0.8482    4.1011   -3.1526 H   0  0  0  0  0  0  0  0  0  0  0  0
   -1.5804    3.0783   -1.9327 H   0  0  0  0  0  0  0  0  0  0  0  0
   -2.7484    5.2016   -2.2943 H   0  0  0  0  0  0  0  0  0  0  0  0
   -2.9665    4.8767   -4.0287 H   0  0  0  0  0  0  0  0  0  0  0  0
   -5.0722    4.3766   -2.6891 H   0  0  0  0  0  0  0  0  0  0  0  0
   -4.3601    2.9216   -3.5068 H   0  0  0  0  0  0  0  0  0  0  0  0
   -3.2585    2.2468   -1.3576 H   0  0  0  0  0  0  0  0  0  0  0  0
   -3.7949    3.8705   -0.6275 H   0  0  0  0  0  0  0  0  0  0  0  0
   -5.4214    1.4995   -1.6453 H   0  0  0  0  0  0  0  0  0  0  0  0
   -6.1293    3.0494   -0.8927 H   0  0  0  0  0  0  0  0  0  0  0  0
   -4.6802    2.6252    1.0810 H   0  0  0  0  0  0  0  0  0  0  0  0
   -4.1299    1.0617    0.2819 H   0  0  0  0  0  0  0  0  0  0  0  0
   -6.4340    0.2646    0.1705 H   0  0  0  0  0  0  0  0  0  0  0  0
   -7.0275    1.7585    0.9732 H   0  0  0  0  0  0  0  0  0  0  0  0
   -6.8571   -0.0335    2.6575 H   0  0  0  0  0  0  0  0  0  0  0  0
   -5.1033   -0.3104    2.2078 H   0  0  0  0  0  0  0  0  0  0  0  0
   -4.6689    2.0632    2.9674 H   0  0  0  0  0  0  0  0  0  0  0  0
   -6.4490    2.1237    3.3999 H   0  0  0  0  0  0  0  0  0  0  0  0
   -4.5256   -0.0041    4.4302 H   0  0  0  0  0  0  0  0  0  0  0  0
   -6.2363    0.1098    4.7925 H   0  0  0  0  0  0  0  0  0  0  0  0
   -5.1302    0.8072    6.7116 H   0  0  0  0  0  0  0  0  0  0  0  0
   -5.8571    2.2534    5.9803 H   0  0  0  0  0  0  0  0  0  0  0  0
   -2.8124    1.5540    5.9422 H   0  0  0  0  0  0  0  0  0  0  0  0
   -3.6467    2.6731    7.0476 H   0  0  0  0  0  0  0  0  0  0  0  0
   -3.0715    3.0376    4.1149 H   0  0  0  0  0  0  0  0  0  0  0  0
   -2.4401    3.8404    5.5333 H   0  0  0  0  0  0  0  0  0  0  0  0
   -4.6135    4.6473    6.2421 H   0  0  0  0  0  0  0  0  0  0  0  0
   -5.4457    3.9043    4.8585 H   0  0  0  0  0  0  0  0  0  0  0  0
   -5.1587    6.3757    4.6467 H   0  0  0  0  0  0  0  0  0  0  0  0
   -3.4247    6.2468    4.8797 H   0  0  0  0  0  0  0  0  0  0  0  0
   -4.1591    6.6265    2.5002 H   0  0  0  0  0  0  0  0  0  0  0  0
   -4.9727    5.0489    2.4434 H   0  0  0  0  0  0  0  0  0  0  0  0
   -2.3342    5.5774    1.7035 H   0  0  0  0  0  0  0  0  0  0  0  0
   -2.0416    4.8947    3.2997 H   0  0  0  0  0  0  0  0  0  0  0  0
   -2.9922    3.9497    2.0537 H   0  0  0  0  0  0  0  0  0  0  0  0
   -0.5887   -2.4905   -1.6771 H   0  0  0  0  0  0  0  0  0  0  0  0
   -1.9278   -4.3581   -3.7321 H   0  0  0  0  0  0  0  0  0  0  0  0
   -0.2137   -4.6578   -3.5315 H   0  0  0  0  0  0  0  0  0  0  0  0
   -2.5433   -4.9315   -1.5021 H   0  0  0  0  0  0  0  0  0  0  0  0
   -1.8197   -6.2405   -2.4124 H   0  0  0  0  0  0  0  0  0  0  0  0
    0.2226   -6.2798   -1.2057 H   0  0  0  0  0  0  0  0  0  0  0  0
   -1.1828   -6.3866   -0.0707 H   0  0  0  0  0  0  0  0  0  0  0  0
    0.7300   -4.1157   -0.7012 H   0  0  0  0  0  0  0  0  0  0  0  0
   -0.7545   -3.8300    0.3046 H   0  0  0  0  0  0  0  0  0  0  0  0
   -0.1764   -5.6789    1.7559 H   0  0  0  0  0  0  0  0  0  0  0  0
    1.2373   -6.0584    0.7916 H   0  0  0  0  0  0  0  0  0  0  0  0
    1.7745   -5.0666    2.9508 H   0  0  0  0  0  0  0  0  0  0  0  0
    2.5547   -4.2977    1.6025 H   0  0  0  0  0  0  0  0  0  0  0  0
    0.2514   -3.2600    3.3036 H   0  0  0  0  0  0  0  0  0  0  0  0
    0.8526   -2.3120    1.9332 H   0  0  0  0  0  0  0  0  0  0  0  0
    2.2921   -3.1777    4.4414 H   0  0  0  0  0  0  0  0  0  0  0  0
    1.9681   -1.5495    3.8752 H   0  0  0  0  0  0  0  0  0  0  0  0
    4.3386   -2.0542    3.6335 H   0  0  0  0  0  0  0  0  0  0  0  0
    3.9599   -3.4820    2.6809 H   0  0  0  0  0  0  0  0  0  0  0  0
    3.1906   -1.9687    0.7683 H   0  0  0  0  0  0  0  0  0  0  0  0
    3.4120   -0.5720    1.8255 H   0  0  0  0  0  0  0  0  0  0  0  0
    5.7827   -1.0426    1.9824 H   0  0  0  0  0  0  0  0  0  0  0  0
    5.2320   -0.9811    0.2470 H   0  0  0  0  0  0  0  0  0  0  0  0
    5.6665   -3.6431    1.7776 H   0  0  0  0  0  0  0  0  0  0  0  0
    6.8366   -2.9093    0.7064 H   0  0  0  0  0  0  0  0  0  0  0  0
    3.9603   -3.6588   -0.0456 H   0  0  0  0  0  0  0  0  0  0  0  0
    5.3467   -4.7275   -0.2874 H   0  0  0  0  0  0  0  0  0  0  0  0
    4.7805   -3.6119   -2.3597 H   0  0  0  0  0  0  0  0  0  0  0  0
    4.9254   -1.9677   -1.5118 H   0  0  0  0  0  0  0  0  0  0  0  0
    7.1361   -4.0413   -1.9911 H   0  0  0  0  0  0  0  0  0  0  0  0
    7.3612   -2.4672   -1.2054 H   0  0  0  0  0  0  0  0  0  0  0  0
    6.5509   -1.3367   -3.3847 H   0  0  0  0  0  0  0  0  0  0  0  0
    7.9937   -2.3267   -3.5868 H   0  0  0  0  0  0  0  0  0  0  0  0
    6.5704   -2.8487   -5.3338 H   0  0  0  0  0  0  0  0  0  0  0  0
    6.3335   -4.2477   -4.2602 H   0  0  0  0  0  0  0  0  0  0  0  0
    5.0881   -2.8898   -4.3135 H   0  0  0  0  0  0  0  0  0  0  0  0
   -1.1652    3.8051   -5.1453 H   0  0  0  0  0  0  0  0  0  0  0  0
   -2.7095   -2.9066   -1.5726 H   0  0  0  0  0  0  0  0  0  0  0  0
    2.1653    0.6955   -1.4234 H   0  0  0  0  0  0  0  0  0  0  0  0
    2.1756    2.1502   -3.0135 H   0  0  0  0  0  0  0  0  0  0  0  0
    4.1310    1.1322   -4.0192 H   0  0  0  0  0  0  0  0  0  0  0  0
  1  2  1  0
  1 52  1  0
  2  3  1  0
  2 46  1  0
  3 47  1  0
  4  5  1  0
  4 53  1  0
 45  5  1  6
  6 45  1  0
  7 45  1  0
  8 45  1  0
  9 10  1  0
  9 47  1  0
  9 48  1  0
 10 11  1  0
 11 12  1  0
 12 13  1  0
 13 14  1  0
 14 15  1  0
 15 16  1  0
 16 17  1  0
 17 18  1  0
 18 19  1  0
 19 20  1  0
 20 21  1  0
 21 22  1  0
 22 23  1  0
 23 24  1  0
 24 25  1  0
 25 26  1  0
 27 28  1  0
 27 46  1  0
 27 49  1  0
 28 29  1  0
 29 30  1  0
 30 31  1  0
 31 32  1  0
 32 33  1  0
 33 34  1  0
 34 35  1  0
 35 36  1  0
 36 37  1  0
 37 38  1  0
 38 39  1  0
 39 40  1  0
 40 41  1  0
 41 42  1  0
 42 43  1  0
 43 44  1  0
 50 54  1  0
 51 54  1  0
 52 54  1  0
 53 54  1  0
  1 55  1  0
  1 56  1  0
  2 57  1  1
  3 58  1  0
  3 59  1  0
  4 60  1  0
  4 61  1  0
  5 62  1  0
  5 63  1  0
  6 64  1  0
  6 65  1  0
  6 66  1  0
  7 67  1  0
  7 68  1  0
  7 69  1  0
  8 70  1  0
  8 71  1  0
  8 72  1  0
  9 73  1  0
 10 74  1  0
 10 75  1  0
 11 76  1  0
 11 77  1  0
 12 78  1  0
 12 79  1  0
 13 80  1  0
 13 81  1  0
 14 82  1  0
 14 83  1  0
 15 84  1  0
 15 85  1  0
 16 86  1  0
 16 87  1  0
 17 88  1  0
 17 89  1  0
 18 90  1  0
 18 91  1  0
 19 92  1  0
 19 93  1  0
 20 94  1  0
 20 95  1  0
 21 96  1  0
 21 97  1  0
 22 98  1  0
 22 99  1  0
 23100  1  0
 23101  1  0
 24102  1  0
 24103  1  0
 25104  1  0
 25105  1  0
 26106  1  0
 26107  1  0
 26108  1  0
 27109  1  1
 28110  1  0
 28111  1  0
 29112  1  0
 29113  1  0
 30114  1  0
 30115  1  0
 31116  1  0
 31117  1  0
 32118  1  0
 32119  1  0
 33120  1  0
 33121  1  0
 34122  1  0
 34123  1  0
 35124  1  0
 35125  1  0
 36126  1  0
 36127  1  0
 37128  1  0
 37129  1  0
 38130  1  0
 38131  1  0
 39132  1  0
 39133  1  0
 40134  1  0
 40135  1  0
 41136  1  0
 41137  1  0
 42138  1  0
 42139  1  0
 43140  1  0
 43141  1  0
 44142  1  0
 44143  1  0
 44144  1  0
 48145  1  0
 49146  1  0
 50147  1  0
 51148  1  0
 54149  1  0
M  CHG  1  45   1
M  END
$$$$
PHOSPHATIDYLCHOLINE TRANSFER PROTEIN
     RDKit          3D

149148  0  0  0  0  0  0  0  0999 V2000
   -3.6881   -0.0802   -0.6791 C   0  0  0  0  0  0  0  0  0  0  0  0
   -2.4008   -0.1550    0.0466 C   0  0  1  0  0  0  0  0  0  0  0  0
   -1.2709    0.6122   -0.5431 C   0  0  0  0  0  0  0  0  0  0  0  0
   -5.6537   -4.4905   -1.4039 C   0  0  0  0  0  0  0  0  0  0  0  0
   -5.8956   -5.3466   -2.5984 C   0  0  0  0  0  0  0  0  0  0  0  0
   -4.3192   -4.4140   -4.1842 C   0  0  0  0  0  0  0  0  0  0  0  0
   -5.0537   -6.6168   -4.3818 C   0  0  0  0  0  0  0  0  0  0  0  0
   -3.6376   -6.0404   -2.6058 C   0  0  0  0  0  0  0  0  0  0  0  0
   -1.6373    0.8165   -2.9003 C   0  0  0  0  0  0  0  0  0  0  0  0
   -0.6758    1.7159   -3.7450 C   0  0  0  0  0  0  0  0  0  0  0  0
    0.5389    0.8014   -4.0342 C   0  0  0  0  0  0  0  0  0  0  0  0
    1.5646    1.5100   -4.8150 C   0  0  0  0  0  0  0  0  0  0  0  0
    2.8328    0.8317   -5.1420 C   0  0  0  0  0  0  0  0  0  0  0  0
    3.8149    0.5193   -4.0904 C   0  0  0  0  0  0  0  0  0  0  0  0
    3.3084   -0.2764   -2.9577 C   0  0  0  0  0  0  0  0  0  0  0  0
    4.3782   -0.6756   -1.9322 C   0  0  0  0  0  0  0  0  0  0  0  0
    5.4654   -1.5327   -2.4888 C   0  0  0  0  0  0  0  0  0  0  0  0
    6.4484   -1.9041   -1.3733 C   0  0  0  0  0  0  0  0  0  0  0  0
    7.1304   -0.7196   -0.7707 C   0  0  0  0  0  0  0  0  0  0  0  0
    7.9655   -1.2121    0.4039 C   0  0  0  0  0  0  0  0  0  0  0  0
    9.0000   -2.2195    0.0447 C   0  0  0  0  0  0  0  0  0  0  0  0
    9.7452   -2.6343    1.3039 C   0  0  0  0  0  0  0  0  0  0  0  0
    8.8481   -3.2511    2.3302 C   0  0  0  0  0  0  0  0  0  0  0  0
    9.6045   -3.6682    3.6015 C   0  0  0  0  0  0  0  0  0  0  0  0
    8.5157   -4.2604    4.4990 C   0  0  0  0  0  0  0  0  0  0  0  0
    9.0536   -4.7222    5.8219 C   0  0  0  0  0  0  0  0  0  0  0  0
   -2.1612   -1.0134    2.1468 C   0  0  1  0  0  0  0  0  0  0  0  0
   -3.2030   -1.3915    3.1278 C   0  0  0  0  0  0  0  0  0  0  0  0
   -3.4862   -0.4364    4.2226 C   0  0  0  0  0  0  0  0  0  0  0  0
   -3.9428    0.9334    3.9494 C   0  0  0  0  0  0  0  0  0  0  0  0
   -5.1784    1.0954    3.1313 C   0  0  0  0  0  0  0  0  0  0  0  0
   -5.6019    2.5811    3.1069 C   0  0  0  0  0  0  0  0  0  0  0  0
   -6.7609    2.8185    2.2113 C   0  0  0  0  0  0  0  0  0  0  0  0
   -6.5033    2.5974    0.7787 C   0  0  0  0  0  0  0  0  0  0  0  0
   -5.6145    3.4864    0.0299 C   0  0  0  0  0  0  0  0  0  0  0  0
   -4.2318    3.7520    0.4868 C   0  0  0  0  0  0  0  0  0  0  0  0
   -3.5626    4.6435   -0.5818 C   0  0  0  0  0  0  0  0  0  0  0  0
   -2.1205    4.9855   -0.1858 C   0  0  0  0  0  0  0  0  0  0  0  0
   -1.9935    5.7340    1.0713 C   0  0  0  0  0  0  0  0  0  0  0  0
   -0.6363    6.0367    1.5379 C   0  0  0  0  0  0  0  0  0  0  0  0
    0.3341    6.8205    0.7773 C   0  0  0  0  0  0  0  0  0  0  0  0
    0.8837    6.3303   -0.4988 C   0  0  0  0  0  0  0  0  0  0  0  0
    1.5905    4.9906   -0.3568 C   0  0  0  0  0  0  0  0  0  0  0  0
    2.7491    5.1053    0.6151 C   0  0  0  0  0  0  0  0  0  0  0  0
   -4.7332   -5.5676   -3.4203 N   0  0  2  0  0  0  0  0  0  0  0  0
   -2.5197    0.1308    1.4407 O   0  0  0  0  0  0  0  0  0  0  0  0
   -0.9239    0.4689   -1.8266 O   0  0  0  0  0  0  0  0  0  0  0  0
   -1.8634   -0.2712   -3.7945 O   0  0  0  0  0  0  0  0  0  0  0  0
   -0.9734   -0.7671    2.8940 O   0  0  0  0  0  0  0  0  0  0  0  0
   -3.4300   -3.8383   -0.1369 O   0  0  0  0  0  0  0  0  0  0  0  0
   -5.8794   -2.6331    0.3849 O   0  0  0  0  0  0  0  0  0  0  0  0
   -4.6345   -0.9431   -0.0730 O   0  0  0  0  0  0  0  0  0  0  0  0
   -5.2038   -3.2378   -1.8265 O   0  0  0  0  0  0  0  0  0  0  0  0
   -4.4804   -2.5270   -0.5054 P   0  0  0  0  0  0  0  0  0  0  0  0
   -4.1093    0.9131   -0.8609 H   0  0  0  0  0  0  0  0  0  0  0  0
   -3.5115   -0.5450   -1.6949 H   0  0  0  0  0  0  0  0  0  0  0  0
   -2.0811   -1.2367    0.0169 H   0  0  0  0  0  0  0  0  0  0  0  0
   -0.3311    0.3967    0.0737 H   0  0  0  0  0  0  0  0  0  0  0  0
   -1.4565    1.7398   -0.3847 H   0  0  0  0  0  0  0  0  0  0  0  0
   -6.6460   -4.3929   -0.8777 H   0  0  0  0  0  0  0  0  0  0  0  0
   -4.9858   -4.9266   -0.6305 H   0  0  0  0  0  0  0  0  0  0  0  0
   -6.7338   -4.9000   -3.1717 H   0  0  0  0  0  0  0  0  0  0  0  0
   -6.2382   -6.3501   -2.2521 H   0  0  0  0  0  0  0  0  0  0  0  0
   -3.6765   -3.7300   -3.5844 H   0  0  0  0  0  0  0  0  0  0  0  0
   -3.6714   -4.8082   -4.9997 H   0  0  0  0  0  0  0  0  0  0  0  0
   -5.1816   -3.9042   -4.6461 H   0  0  0  0  0  0  0  0  0  0  0  0
   -6.0517   -6.3635   -4.8030 H   0  0  0  0  0  0  0  0  0  0  0  0
   -5.0452   -7.6148   -3.9187 H   0  0  0  0  0  0  0  0  0  0  0  0
   -4.2941   -6.5392   -5.1906 H   0  0  0  0  0  0  0  0  0  0  0  0
   -4.0446   -6.4100   -1.6550 H   0  0  0  0  0  0  0  0  0  0  0  0
   -3.0894   -6.8565   -3.1638 H   0  0  0  0  0  0  0  0  0  0  0  0
   -2.9432   -5.1955   -2.4448 H   0  0  0  0  0  0  0  0  0  0  0  0
   -2.5952    1.3036   -2.7460 H   0  0  0  0  0  0  0  0  0  0  0  0
   -1.1569    2.0385   -4.6675 H   0  0  0  0  0  0  0  0  0  0  0  0
   -0.3597    2.5663   -3.1430 H   0  0  0  0  0  0  0  0  0  0  0  0
    0.1293   -0.0226   -4.7388 H   0  0  0  0  0  0  0  0  0  0  0  0
    0.8077    0.2637   -3.1578 H   0  0  0  0  0  0  0  0  0  0  0  0
    1.7775    2.4875   -4.2707 H   0  0  0  0  0  0  0  0  0  0  0  0
    1.0809    1.8369   -5.7903 H   0  0  0  0  0  0  0  0  0  0  0  0
    3.3896    1.4435   -5.9360 H   0  0  0  0  0  0  0  0  0  0  0  0
    2.5912   -0.1325   -5.7051 H   0  0  0  0  0  0  0  0  0  0  0  0
    4.2298    1.5145   -3.7154 H   0  0  0  0  0  0  0  0  0  0  0  0
    4.7533    0.0510   -4.5461 H   0  0  0  0  0  0  0  0  0  0  0  0
    2.6616    0.4251   -2.3151 H   0  0  0  0  0  0  0  0  0  0  0  0
    2.7197   -1.1530   -3.1917 H   0  0  0  0  0  0  0  0  0  0  0  0
    4.7861    0.2861   -1.5318 H   0  0  0  0  0  0  0  0  0  0  0  0
    3.8220   -1.1899   -1.1171 H   0  0  0  0  0  0  0  0  0  0  0  0
    5.0976   -2.4854   -2.9098 H   0  0  0  0  0  0  0  0  0  0  0  0
    6.0361   -1.0111   -3.2758 H   0  0  0  0  0  0  0  0  0  0  0  0
    5.9084   -2.5090   -0.6185 H   0  0  0  0  0  0  0  0  0  0  0  0
    7.2000   -2.5426   -1.8550 H   0  0  0  0  0  0  0  0  0  0  0  0
    6.4783    0.0907   -0.4306 H   0  0  0  0  0  0  0  0  0  0  0  0
    7.8741   -0.2890   -1.4841 H   0  0  0  0  0  0  0  0  0  0  0  0
    8.4949   -0.3357    0.8380 H   0  0  0  0  0  0  0  0  0  0  0  0
    7.2334   -1.6250    1.1507 H   0  0  0  0  0  0  0  0  0  0  0  0
    8.6062   -3.1116   -0.4852 H   0  0  0  0  0  0  0  0  0  0  0  0
    9.7511   -1.7111   -0.6075 H   0  0  0  0  0  0  0  0  0  0  0  0
   10.5407   -3.3823    1.0362 H   0  0  0  0  0  0  0  0  0  0  0  0
   10.2991   -1.7737    1.7085 H   0  0  0  0  0  0  0  0  0  0  0  0
    8.3891   -4.1762    1.9143 H   0  0  0  0  0  0  0  0  0  0  0  0
    8.0359   -2.5573    2.6291 H   0  0  0  0  0  0  0  0  0  0  0  0
   10.2950   -4.4831    3.3676 H   0  0  0  0  0  0  0  0  0  0  0  0
   10.0663   -2.7981    4.0703 H   0  0  0  0  0  0  0  0  0  0  0  0
    7.6941   -3.5265    4.6476 H   0  0  0  0  0  0  0  0  0  0  0  0
    8.0826   -5.1477    3.9659 H   0  0  0  0  0  0  0  0  0  0  0  0
    8.9329   -5.8075    5.9407 H   0  0  0  0  0  0  0  0  0  0  0  0
    8.5965   -4.1757    6.6805 H   0  0  0  0  0  0  0  0  0  0  0  0
   10.1425   -4.4813    5.8881 H   0  0  0  0  0  0  0  0  0  0  0  0
   -1.8855   -1.8672    1.4859 H   0  0  0  0  0  0  0  0  0  0  0  0
   -4.1542   -1.5511    2.5238 H   0  0  0  0  0  0  0  0  0  0  0  0
   -2.9991   -2.4231    3.5624 H   0  0  0  0  0  0  0  0  0  0  0  0
   -4.2335   -0.8772    4.9572 H   0  0  0  0  0  0  0  0  0  0  0  0
   -2.5670   -0.3355    4.8823 H   0  0  0  0  0  0  0  0  0  0  0  0
   -4.0861    1.4583    4.9365 H   0  0  0  0  0  0  0  0  0  0  0  0
   -3.1128    1.4886    3.4213 H   0  0  0  0  0  0  0  0  0  0  0  0
   -5.0900    0.7080    2.1123 H   0  0  0  0  0  0  0  0  0  0  0  0
   -6.0452    0.5780    3.6072 H   0  0  0  0  0  0  0  0  0  0  0  0
   -5.8919    2.7771    4.1862 H   0  0  0  0  0  0  0  0  0  0  0  0
   -4.7098    3.1350    2.9152 H   0  0  0  0  0  0  0  0  0  0  0  0
   -7.5543    2.0708    2.5323 H   0  0  0  0  0  0  0  0  0  0  0  0
   -7.2185    3.7929    2.4652 H   0  0  0  0  0  0  0  0  0  0  0  0
   -7.5044    2.6075    0.2238 H   0  0  0  0  0  0  0  0  0  0  0  0
   -6.2038    1.5128    0.6541 H   0  0  0  0  0  0  0  0  0  0  0  0
   -6.0914    4.4923   -0.1665 H   0  0  0  0  0  0  0  0  0  0  0  0
   -5.5156    3.0617   -1.0210 H   0  0  0  0  0  0  0  0  0  0  0  0
   -4.2546    4.5054    1.3597 H   0  0  0  0  0  0  0  0  0  0  0  0
   -3.6018    2.8924    0.6763 H   0  0  0  0  0  0  0  0  0  0  0  0
   -3.5337    4.1547   -1.5514 H   0  0  0  0  0  0  0  0  0  0  0  0
   -4.1092    5.6027   -0.6833 H   0  0  0  0  0  0  0  0  0  0  0  0
   -1.5235    4.0755   -0.2916 H   0  0  0  0  0  0  0  0  0  0  0  0
   -1.8170    5.6545   -1.0626 H   0  0  0  0  0  0  0  0  0  0  0  0
   -2.5670    5.1606    1.8690 H   0  0  0  0  0  0  0  0  0  0  0  0
   -2.6087    6.6913    0.9907 H   0  0  0  0  0  0  0  0  0  0  0  0
   -0.1233    5.0582    1.8828 H   0  0  0  0  0  0  0  0  0  0  0  0
   -0.7360    6.5521    2.5673 H   0  0  0  0  0  0  0  0  0  0  0  0
   -0.1253    7.8445    0.5308 H   0  0  0  0  0  0  0  0  0  0  0  0
    1.2003    7.1396    1.4538 H   0  0  0  0  0  0  0  0  0  0  0  0
    1.7400    7.0458   -0.7530 H   0  0  0  0  0  0  0  0  0  0  0  0
    0.2180    6.3090   -1.3320 H   0  0  0  0  0  0  0  0  0  0  0  0
    2.0029    4.7284   -1.3363 H   0  0  0  0  0  0  0  0  0  0  0  0
    0.8824    4.2422    0.0116 H   0  0  0  0  0  0  0  0  0  0  0  0
    3.4010    5.9694    0.3869 H   0  0  0  0  0  0  0  0  0  0  0  0
    3.3608    4.1912    0.5077 H   0  0  0  0  0  0  0  0  0  0  0  0
    2.3858    5.1601    1.6697 H   0  0  0  0  0  0  0  0  0  0  0  0
   -2.5656    0.0068   -4.4190 H   0  0  0  0  0  0  0  0  0  0  0  0
   -0.5798   -1.6417    3.0879 H   0  0  0  0  0  0  0  0  0  0  0  0
   -2.5659   -3.5565   -0.4962 H   0  0  0  0  0  0  0  0  0  0  0  0
   -5.9152   -3.3306    1.0617 H   0  0  0  0  0  0  0  0  0  0  0  0
   -4.9865   -1.9889   -1.6771 H   0  0  0  0  0  0  0  0  0  0  0  0
  1  2  1  0
  1 52  1  0
  2  3  1  0
  2 46  1  0
  3 47  1  0
  4  5  1  0
  4 53  1  0
 45  5  1  1
  6 45  1  0
  7 45  1  0
  8 45  1  0
  9 10  1  0
  9 47  1  0
  9 48  1  0
 10 11  1  0
 11 12  1  0
 12 13  1  0
 13 14  1  0
 14 15  1  0
 15 16  1  0
 16 17  1  0
 17 18  1  0
 18 19  1  0
 19 20  1  0
 20 21  1  0
 21 22  1  0
 22 23  1  0
 23 24  1  0
 24 25  1  0
 25 26  1  0
 27 28  1  0
 27 46  1  0
 27 49  1  0
 28 29  1  0
 29 30  1  0
 30 31  1  0
 31 32  1  0
 32 33  1  0
 33 34  1  0
 34 35  1  0
 35 36  1  0
 36 37  1  0
 37 38  1  0
 38 39  1  0
 39 40  1  0
 40 41  1  0
 41 42  1  0
 42 43  1  0
 43 44  1  0
 50 54  1  0
 51 54  1  0
 52 54  1  0
 53 54  1  0
  1 55  1  0
  1 56  1  0
  2 57  1  1
  3 58  1  0
  3 59  1  0
  4 60  1  0
  4 61  1  0
  5 62  1  0
  5 63  1  0
  6 64  1  0
  6 65  1  0
  6 66  1  0
  7 67  1  0
  7 68  1  0
  7 69  1  0
  8 70  1  0
  8 71  1  0
  8 72  1  0
  9 73  1  0
 10 74  1  0
 10 75  1  0
 11 76  1  0
 11 77  1  0
 12 78  1  0
 12 79  1  0
 13 80  1  0
 13 81  1  0
 14 82  1  0
 14 83  1  0
 15 84  1  0
 15 85  1  0
 16 86  1  0
 16 87  1  0
 17 88  1  0
 17 89  1  0
 18 90  1  0
 18 91  1  0
 19 92  1  0
 19 93  1  0
 20 94  1  0
 20 95  1  0
 21 96  1  0
 21 97  1  0
 22 98  1  0
 22 99  1  0
 23100  1  0
 23101  1  0
 24102  1  0
 24103  1  0
 25104  1  0
 25105  1  0
 26106  1  0
 26107  1  0
 26108  1  0
 27109  1  6
 28110  1  0
 28111  1  0
 29112  1  0
 29113  1  0
 30114  1  0
 30115  1  0
 31116  1  0
 31117  1  0
 32118  1  0
 32119  1  0
 33120  1  0
 33121  1  0
 34122  1  0
 34123  1  0
 35124  1  0
 35125  1  0
 36126  1  0
 36127  1  0
 37128  1  0
 37129  1  0
 38130  1  0
 38131  1  0
 39132  1  0
 39133  1  0
 40134  1  0
 40135  1  0
 41136  1  0
 41137  1  0
 42138  1  0
 42139  1  0
 43140  1  0
 43141  1  0
 44142  1  0
 44143  1  0
 44144  1  0
 48145  1  0
 49146  1  0
 50147  1  0
 51148  1  0
 54149  1  0
M  CHG  1  45   1
M  END
$$$$
PHOSPHATIDYLCHOLINE TRANSFER PROTEIN
     RDKit          3D

149148  0  0  0  0  0  0  0  0999 V2000
    0.8400   -1.0058    1.7878 C   0  0  0  0  0  0  0  0  0  0  0  0
   -0.1499   -1.7606    2.6138 C   0  0  1  0  0  0  0  0  0  0  0  0
   -1.5967   -1.2895    2.2183 C   0  0  0  0  0  0  0  0  0  0  0  0
    2.0077    0.1137   -1.4352 C   0  0  0  0  0  0  0  0  0  0  0  0
    2.1024   -0.9942   -2.4526 C   0  0  0  0  0  0  0  0  0  0  0  0
    3.3209   -2.6527   -3.5174 C   0  0  0  0  0  0  0  0  0  0  0  0
    4.4168   -1.4166   -1.8686 C   0  0  0  0  0  0  0  0  0  0  0  0
    3.8915   -0.4346   -3.9267 C   0  0  0  0  0  0  0  0  0  0  0  0
   -3.0670    0.4642    2.2841 C   0  0  0  0  0  0  0  0  0  0  0  0
   -3.0081    1.8001    1.6365 C   0  0  0  0  0  0  0  0  0  0  0  0
   -2.2277    1.8565    0.3595 C   0  0  0  0  0  0  0  0  0  0  0  0
   -2.2451    3.2618   -0.1862 C   0  0  0  0  0  0  0  0  0  0  0  0
   -1.4726    3.4451   -1.4378 C   0  0  0  0  0  0  0  0  0  0  0  0
   -1.8931    2.6239   -2.6108 C   0  0  0  0  0  0  0  0  0  0  0  0
   -0.9710    3.0022   -3.7528 C   0  0  0  0  0  0  0  0  0  0  0  0
   -1.2198    2.2813   -5.0261 C   0  0  0  0  0  0  0  0  0  0  0  0
   -1.0735    0.7919   -4.9596 C   0  0  0  0  0  0  0  0  0  0  0  0
   -1.3339    0.1533   -6.3218 C   0  0  0  0  0  0  0  0  0  0  0  0
   -1.1807   -1.3333   -6.2725 C   0  0  0  0  0  0  0  0  0  0  0  0
   -1.4165   -1.9955   -7.6094 C   0  0  0  0  0  0  0  0  0  0  0  0
   -2.8134   -1.7345   -8.1396 C   0  0  0  0  0  0  0  0  0  0  0  0
   -2.9389   -2.4396   -9.4756 C   0  0  0  0  0  0  0  0  0  0  0  0
   -4.2773   -2.2768  -10.1224 C   0  0  0  0  0  0  0  0  0  0  0  0
   -4.6780   -0.8737  -10.4225 C   0  0  0  0  0  0  0  0  0  0  0  0
   -6.0601   -0.9241  -11.0795 C   0  0  0  0  0  0  0  0  0  0  0  0
   -6.9978   -1.5726  -10.0883 C   0  0  0  0  0  0  0  0  0  0  0  0
   -0.0378   -4.1830    2.8927 C   0  0  1  0  0  0  0  0  0  0  0  0
    1.0243   -5.1232    2.5577 C   0  0  0  0  0  0  0  0  0  0  0  0
    2.4017   -4.9865    2.8961 C   0  0  0  0  0  0  0  0  0  0  0  0
    3.3295   -3.8711    2.7752 C   0  0  0  0  0  0  0  0  0  0  0  0
    3.2197   -2.7568    3.8001 C   0  0  0  0  0  0  0  0  0  0  0  0
    4.2435   -1.6936    3.5613 C   0  0  0  0  0  0  0  0  0  0  0  0
    4.2162   -0.6549    4.6944 C   0  0  0  0  0  0  0  0  0  0  0  0
    5.2867    0.3284    4.3605 C   0  0  0  0  0  0  0  0  0  0  0  0
    5.5925    1.4018    5.3144 C   0  0  0  0  0  0  0  0  0  0  0  0
    4.5504    2.3610    5.7250 C   0  0  0  0  0  0  0  0  0  0  0  0
    3.9284    3.1480    4.6124 C   0  0  0  0  0  0  0  0  0  0  0  0
    2.9520    4.1306    5.1572 C   0  0  0  0  0  0  0  0  0  0  0  0
    1.8394    3.5926    5.9719 C   0  0  0  0  0  0  0  0  0  0  0  0
    0.9365    2.6118    5.3040 C   0  0  0  0  0  0  0  0  0  0  0  0
   -0.1349    2.2065    6.3304 C   0  0  0  0  0  0  0  0  0  0  0  0
   -1.0833    1.1973    5.6967 C   0  0  0  0  0  0  0  0  0  0  0  0
   -2.1373    0.8223    6.7121 C   0  0  0  0  0  0  0  0  0  0  0  0
   -1.4652    0.2296    7.9118 C   0  0  0  0  0  0  0  0  0  0  0  0
    3.4185   -1.3264   -2.8823 N   0  0  2  0  0  0  0  0  0  0  0  0
   -0.0306   -3.0381    2.3093 O   0  0  0  0  0  0  0  0  0  0  0  0
   -1.7775    0.0235    2.6003 O   0  0  0  0  0  0  0  0  0  0  0  0
   -3.6830    0.6784    3.5525 O   0  0  0  0  0  0  0  0  0  0  0  0
   -1.2624   -4.9276    2.6534 O   0  0  0  0  0  0  0  0  0  0  0  0
    3.7502    0.6655    0.5281 O   0  0  0  0  0  0  0  0  0  0  0  0
    2.1296    2.5644    1.4575 O   0  0  0  0  0  0  0  0  0  0  0  0
    0.9191    0.3625    1.9716 O   0  0  0  0  0  0  0  0  0  0  0  0
    2.6634   -0.1275   -0.2577 O   0  0  0  0  0  0  0  0  0  0  0  0
    2.1348    0.9786    0.9100 P   0  0  0  0  0  0  0  0  0  0  0  0
    1.8264   -1.5003    1.7366 H   0  0  0  0  0  0  0  0  0  0  0  0
    0.5053   -1.0775    0.6790 H   0  0  0  0  0  0  0  0  0  0  0  0
   -0.1252   -1.5209    3.6671 H   0  0  0  0  0  0  0  0  0  0  0  0
   -2.2707   -1.9058    2.8539 H   0  0  0  0  0  0  0  0  0  0  0  0
   -1.7487   -1.4092    1.1469 H   0  0  0  0  0  0  0  0  0  0  0  0
    2.3844    1.0786   -1.8368 H   0  0  0  0  0  0  0  0  0  0  0  0
    0.9388    0.2789   -1.2260 H   0  0  0  0  0  0  0  0  0  0  0  0
    1.5906   -1.9116   -2.0912 H   0  0  0  0  0  0  0  0  0  0  0  0
    1.5331   -0.6645   -3.3551 H   0  0  0  0  0  0  0  0  0  0  0  0
    4.3072   -3.0448   -3.7793 H   0  0  0  0  0  0  0  0  0  0  0  0
    2.6571   -2.4675   -4.4047 H   0  0  0  0  0  0  0  0  0  0  0  0
    2.7194   -3.3121   -2.8508 H   0  0  0  0  0  0  0  0  0  0  0  0
    4.9421   -0.4435   -1.6859 H   0  0  0  0  0  0  0  0  0  0  0  0
    4.0128   -1.8845   -0.9627 H   0  0  0  0  0  0  0  0  0  0  0  0
    5.2458   -2.0947   -2.2202 H   0  0  0  0  0  0  0  0  0  0  0  0
    4.9924   -0.3633   -3.9773 H   0  0  0  0  0  0  0  0  0  0  0  0
    3.5899   -0.8276   -4.9377 H   0  0  0  0  0  0  0  0  0  0  0  0
    3.3788    0.5451   -3.8343 H   0  0  0  0  0  0  0  0  0  0  0  0
   -3.6679   -0.2801    1.7335 H   0  0  0  0  0  0  0  0  0  0  0  0
   -2.6335    2.5879    2.3609 H   0  0  0  0  0  0  0  0  0  0  0  0
   -4.0444    2.1471    1.4029 H   0  0  0  0  0  0  0  0  0  0  0  0
   -1.2104    1.4997    0.4025 H   0  0  0  0  0  0  0  0  0  0  0  0
   -2.7591    1.1695   -0.3625 H   0  0  0  0  0  0  0  0  0  0  0  0
   -1.9635    3.9960    0.5973 H   0  0  0  0  0  0  0  0  0  0  0  0
   -3.3186    3.4996   -0.4114 H   0  0  0  0  0  0  0  0  0  0  0  0
   -0.3731    3.3539   -1.2262 H   0  0  0  0  0  0  0  0  0  0  0  0
   -1.5797    4.5249   -1.7508 H   0  0  0  0  0  0  0  0  0  0  0  0
   -2.9204    2.9516   -2.9049 H   0  0  0  0  0  0  0  0  0  0  0  0
   -1.9476    1.5488   -2.4492 H   0  0  0  0  0  0  0  0  0  0  0  0
   -1.0369    4.0902   -3.9649 H   0  0  0  0  0  0  0  0  0  0  0  0
    0.0987    2.8305   -3.4676 H   0  0  0  0  0  0  0  0  0  0  0  0
   -0.5479    2.7288   -5.7948 H   0  0  0  0  0  0  0  0  0  0  0  0
   -2.2505    2.4795   -5.4213 H   0  0  0  0  0  0  0  0  0  0  0  0
   -0.0125    0.5756   -4.7264 H   0  0  0  0  0  0  0  0  0  0  0  0
   -1.6909    0.3194   -4.1922 H   0  0  0  0  0  0  0  0  0  0  0  0
   -2.3567    0.4575   -6.5977 H   0  0  0  0  0  0  0  0  0  0  0  0
   -0.6415    0.5530   -7.0880 H   0  0  0  0  0  0  0  0  0  0  0  0
   -1.9401   -1.7141   -5.5503 H   0  0  0  0  0  0  0  0  0  0  0  0
   -0.1809   -1.6133   -5.8962 H   0  0  0  0  0  0  0  0  0  0  0  0
   -0.6466   -1.6890   -8.3592 H   0  0  0  0  0  0  0  0  0  0  0  0
   -1.2501   -3.1004   -7.4926 H   0  0  0  0  0  0  0  0  0  0  0  0
   -3.5412   -2.1229   -7.4009 H   0  0  0  0  0  0  0  0  0  0  0  0
   -2.9744   -0.6423   -8.2223 H   0  0  0  0  0  0  0  0  0  0  0  0
   -2.1593   -2.1336  -10.1731 H   0  0  0  0  0  0  0  0  0  0  0  0
   -2.8079   -3.5241   -9.2768 H   0  0  0  0  0  0  0  0  0  0  0  0
   -5.1055   -2.7493   -9.5518 H   0  0  0  0  0  0  0  0  0  0  0  0
   -4.2305   -2.8318  -11.0905 H   0  0  0  0  0  0  0  0  0  0  0  0
   -4.8101   -0.2555   -9.5239 H   0  0  0  0  0  0  0  0  0  0  0  0
   -3.9207   -0.4087  -11.0879 H   0  0  0  0  0  0  0  0  0  0  0  0
   -6.3480    0.1133  -11.3095 H   0  0  0  0  0  0  0  0  0  0  0  0
   -5.9300   -1.5676  -11.9740 H   0  0  0  0  0  0  0  0  0  0  0  0
   -8.0158   -1.1298  -10.1638 H   0  0  0  0  0  0  0  0  0  0  0  0
   -7.0232   -2.6759  -10.2313 H   0  0  0  0  0  0  0  0  0  0  0  0
   -6.6511   -1.3861   -9.0465 H   0  0  0  0  0  0  0  0  0  0  0  0
   -0.1057   -4.1246    4.0455 H   0  0  0  0  0  0  0  0  0  0  0  0
    0.6597   -6.2176    2.7914 H   0  0  0  0  0  0  0  0  0  0  0  0
    0.9844   -5.2151    1.3763 H   0  0  0  0  0  0  0  0  0  0  0  0
    2.9141   -5.9494    2.4361 H   0  0  0  0  0  0  0  0  0  0  0  0
    2.5558   -5.3267    4.0330 H   0  0  0  0  0  0  0  0  0  0  0  0
    4.3780   -4.2831    2.9382 H   0  0  0  0  0  0  0  0  0  0  0  0
    3.4059   -3.4353    1.7431 H   0  0  0  0  0  0  0  0  0  0  0  0
    3.4837   -3.1910    4.8242 H   0  0  0  0  0  0  0  0  0  0  0  0
    2.2356   -2.3364    3.9174 H   0  0  0  0  0  0  0  0  0  0  0  0
    4.0204   -1.1207    2.6143 H   0  0  0  0  0  0  0  0  0  0  0  0
    5.2688   -2.0839    3.4347 H   0  0  0  0  0  0  0  0  0  0  0  0
    4.4713   -1.1322    5.6453 H   0  0  0  0  0  0  0  0  0  0  0  0
    3.1842   -0.2385    4.6862 H   0  0  0  0  0  0  0  0  0  0  0  0
    5.1373    0.8016    3.3578 H   0  0  0  0  0  0  0  0  0  0  0  0
    6.2291   -0.2766    4.2152 H   0  0  0  0  0  0  0  0  0  0  0  0
    6.4093    2.0346    4.8178 H   0  0  0  0  0  0  0  0  0  0  0  0
    6.1321    0.9799    6.2072 H   0  0  0  0  0  0  0  0  0  0  0  0
    5.0612    3.1293    6.3825 H   0  0  0  0  0  0  0  0  0  0  0  0
    3.7879    1.9159    6.4041 H   0  0  0  0  0  0  0  0  0  0  0  0
    3.5160    2.5055    3.8085 H   0  0  0  0  0  0  0  0  0  0  0  0
    4.7486    3.7468    4.1404 H   0  0  0  0  0  0  0  0  0  0  0  0
    2.4890    4.6551    4.2753 H   0  0  0  0  0  0  0  0  0  0  0  0
    3.5462    4.8939    5.7226 H   0  0  0  0  0  0  0  0  0  0  0  0
    2.1539    3.1733    6.9520 H   0  0  0  0  0  0  0  0  0  0  0  0
    1.1912    4.4732    6.2587 H   0  0  0  0  0  0  0  0  0  0  0  0
    0.3558    3.0880    4.4808 H   0  0  0  0  0  0  0  0  0  0  0  0
    1.4361    1.7116    4.9218 H   0  0  0  0  0  0  0  0  0  0  0  0
    0.4029    1.7939    7.1903 H   0  0  0  0  0  0  0  0  0  0  0  0
   -0.6975    3.1343    6.5661 H   0  0  0  0  0  0  0  0  0  0  0  0
   -1.5427    1.7115    4.8125 H   0  0  0  0  0  0  0  0  0  0  0  0
   -0.5161    0.3007    5.4087 H   0  0  0  0  0  0  0  0  0  0  0  0
   -2.7480    1.7152    6.9968 H   0  0  0  0  0  0  0  0  0  0  0  0
   -2.8616    0.0987    6.2921 H   0  0  0  0  0  0  0  0  0  0  0  0
   -0.4073   -0.0266    7.6701 H   0  0  0  0  0  0  0  0  0  0  0  0
   -2.0059   -0.6920    8.2165 H   0  0  0  0  0  0  0  0  0  0  0  0
   -1.4946    0.9535    8.7747 H   0  0  0  0  0  0  0  0  0  0  0  0
   -3.7068    1.6401    3.7797 H   0  0  0  0  0  0  0  0  0  0  0  0
   -1.3782   -5.0008    1.6599 H   0  0  0  0  0  0  0  0  0  0  0  0
    4.2883    1.2371    1.1645 H   0  0  0  0  0  0  0  0  0  0  0  0
    3.0651    2.8862    1.4945 H   0  0  0  0  0  0  0  0  0  0  0  0
    1.0735    1.8473    0.7242 H   0  0  0  0  0  0  0  0  0  0  0  0
  1  2  1  0
  1 52  1  0
  2  3  1  0
  2 46  1  0
  3 47  1  0
  4  5  1  0
  4 53  1  0
 45  5  1  1
  6 45  1  0
  7 45  1  0
  8 45  1  0
  9 10  1  0
  9 47  1  0
  9 48  1  0
 10 11  1  0
 11 12  1  0
 12 13  1  0
 13 14  1  0
 14 15  1  0
 15 16  1  0
 16 17  1  0
 17 18  1  0
 18 19  1  0
 19 20  1  0
 20 21  1  0
 21 22  1  0
 22 23  1  0
 23 24  1  0
 24 25  1  0
 25 26  1  0
 27 28  1  0
 27 46  1  0
 27 49  1  0
 28 29  1  0
 29 30  1  0
 30 31  1  0
 31 32  1  0
 32 33  1  0
 33 34  1  0
 34 35  1  0
 35 36  1  0
 36 37  1  0
 37 38  1  0
 38 39  1  0
 39 40  1  0
 40 41  1  0
 41 42  1  0
 42 43  1  0
 43 44  1  0
 50 54  1  0
 51 54  1  0
 52 54  1  0
 53 54  1  0
  1 55  1  0
  1 56  1  0
  2 57  1  1
  3 58  1  0
  3 59  1  0
  4 60  1  0
  4 61  1  0
  5 62  1  0
  5 63  1  0
  6 64  1  0
  6 65  1  0
  6 66  1  0
  7 67  1  0
  7 68  1  0
  7 69  1  0
  8 70  1  0
  8 71  1  0
  8 72  1  0
  9 73  1  0
 10 74  1  0
 10 75  1  0
 11 76  1  0
 11 77  1  0
 12 78  1  0
 12 79  1  0
 13 80  1  0
 13 81  1  0
 14 82  1  0
 14 83  1  0
 15 84  1  0
 15 85  1  0
 16 86  1  0
 16 87  1  0
 17 88  1  0
 17 89  1  0
 18 90  1  0
 18 91  1  0
 19 92  1  0
 19 93  1  0
 20 94  1  0
 20 95  1  0
 21 96  1  0
 21 97  1  0
 22 98  1  0
 22 99  1  0
 23100  1  0
 23101  1  0
 24102  1  0
 24103  1  0
 25104  1  0
 25105  1  0
 26106  1  0
 26107  1  0
 26108  1  0
 27109  1  1
 28110  1  0
 28111  1  0
 29112  1  0
 29113  1  0
 30114  1  0
 30115  1  0
 31116  1  0
 31117  1  0
 32118  1  0
 32119  1  0
 33120  1  0
 33121  1  0
 34122  1  0
 34123  1  0
 35124  1  0
 35125  1  0
 36126  1  0
 36127  1  0
 37128  1  0
 37129  1  0
 38130  1  0
 38131  1  0
 39132  1  0
 39133  1  0
 40134  1  0
 40135  1  0
 41136  1  0
 41137  1  0
 42138  1  0
 42139  1  0
 43140  1  0
 43141  1  0
 44142  1  0
 44143  1  0
 44144  1  0
 48145  1  0
 49146  1  0
 50147  1  0
 51148  1  0
 54149  1  0
M  CHG  1  45   1
M  END
$$$$
PHOSPHATIDYLCHOLINE TRANSFER PROTEIN
     RDKit          3D

149148  0  0  0  0  0  0  0  0999 V2000
   -1.8032    2.5020    2.8210 C   0  0  0  0  0  0  0  0  0  0  0  0
   -1.8026    1.0581    2.2984 C   0  0  1  0  0  0  0  0  0  0  0  0
   -3.2826    0.6442    2.4882 C   0  0  0  0  0  0  0  0  0  0  0  0
   -2.7284    2.6754   -1.5364 C   0  0  0  0  0  0  0  0  0  0  0  0
   -2.3464    1.8355   -2.7281 C   0  0  0  0  0  0  0  0  0  0  0  0
   -3.2513    0.6242   -4.5790 C   0  0  0  0  0  0  0  0  0  0  0  0
   -4.6759    1.9542   -3.2813 C   0  0  0  0  0  0  0  0  0  0  0  0
   -3.8029   -0.0410   -2.4244 C   0  0  0  0  0  0  0  0  0  0  0  0
   -4.6999    0.7852    4.3916 C   0  0  0  0  0  0  0  0  0  0  0  0
   -4.7766   -0.0551    5.6001 C   0  0  0  0  0  0  0  0  0  0  0  0
   -4.5982   -1.5395    5.5155 C   0  0  0  0  0  0  0  0  0  0  0  0
   -5.7705   -2.0550    4.7027 C   0  0  0  0  0  0  0  0  0  0  0  0
   -6.0012   -3.4821    4.6563 C   0  0  0  0  0  0  0  0  0  0  0  0
   -5.1820   -4.5484    4.1461 C   0  0  0  0  0  0  0  0  0  0  0  0
   -4.8585   -4.6081    2.6589 C   0  0  0  0  0  0  0  0  0  0  0  0
   -4.1474   -5.9668    2.5285 C   0  0  0  0  0  0  0  0  0  0  0  0
   -3.7756   -6.3853    1.1838 C   0  0  0  0  0  0  0  0  0  0  0  0
   -2.7622   -5.6274    0.4033 C   0  0  0  0  0  0  0  0  0  0  0  0
   -1.3970   -5.6529    1.0822 C   0  0  0  0  0  0  0  0  0  0  0  0
   -0.4148   -4.9401    0.1792 C   0  0  0  0  0  0  0  0  0  0  0  0
    0.9722   -4.9290    0.7566 C   0  0  0  0  0  0  0  0  0  0  0  0
    1.9615   -4.2395   -0.1491 C   0  0  0  0  0  0  0  0  0  0  0  0
    3.3468   -4.3036    0.4793 C   0  0  0  0  0  0  0  0  0  0  0  0
    4.3606   -3.6485   -0.3882 C   0  0  0  0  0  0  0  0  0  0  0  0
    4.1211   -2.1962   -0.6680 C   0  0  0  0  0  0  0  0  0  0  0  0
    5.2397   -1.6459   -1.5598 C   0  0  0  0  0  0  0  0  0  0  0  0
   -0.2866    0.2077    0.7742 C   0  0  1  0  0  0  0  0  0  0  0  0
    0.9520    0.8946    0.2372 C   0  0  0  0  0  0  0  0  0  0  0  0
    1.5439    1.9139    1.1648 C   0  0  0  0  0  0  0  0  0  0  0  0
    2.7861    2.6037    0.5905 C   0  0  0  0  0  0  0  0  0  0  0  0
    3.3552    3.5643    1.6088 C   0  0  0  0  0  0  0  0  0  0  0  0
    4.5533    4.3137    1.1568 C   0  0  0  0  0  0  0  0  0  0  0  0
    4.3226    5.2203   -0.0202 C   0  0  0  0  0  0  0  0  0  0  0  0
    5.5917    5.9670   -0.4074 C   0  0  0  0  0  0  0  0  0  0  0  0
    5.3881    6.9141   -1.5311 C   0  0  0  0  0  0  0  0  0  0  0  0
    4.9287    6.3672   -2.8270 C   0  0  0  0  0  0  0  0  0  0  0  0
    5.8480    5.3892   -3.4930 C   0  0  0  0  0  0  0  0  0  0  0  0
    5.1992    4.9786   -4.8008 C   0  0  0  0  0  0  0  0  0  0  0  0
    6.0392    4.0005   -5.5884 C   0  0  0  0  0  0  0  0  0  0  0  0
    5.3704    3.6336   -6.8482 C   0  0  0  0  0  0  0  0  0  0  0  0
    4.0265    3.0804   -6.9048 C   0  0  0  0  0  0  0  0  0  0  0  0
    3.5149    1.8522   -6.3524 C   0  0  0  0  0  0  0  0  0  0  0  0
    3.4382    1.5196   -4.9248 C   0  0  0  0  0  0  0  0  0  0  0  0
    4.7063    1.3715   -4.1743 C   0  0  0  0  0  0  0  0  0  0  0  0
   -3.5054    1.1236   -3.2376 N   0  0  2  0  0  0  0  0  0  0  0  0
   -1.3522    0.9857    1.0321 O   0  0  0  0  0  0  0  0  0  0  0  0
   -3.5074    0.8254    3.8049 O   0  0  0  0  0  0  0  0  0  0  0  0
   -4.9934    2.1227    4.8665 O   0  0  0  0  0  0  0  0  0  0  0  0
   -0.6332   -0.7860   -0.1534 O   0  0  0  0  0  0  0  0  0  0  0  0
   -2.4316    4.8558    1.7428 O   0  0  0  0  0  0  0  0  0  0  0  0
   -0.7983    4.4957   -0.2719 O   0  0  0  0  0  0  0  0  0  0  0  0
   -2.6216    3.3049    2.0840 O   0  0  0  0  0  0  0  0  0  0  0  0
   -1.6346    3.3721   -1.0189 O   0  0  0  0  0  0  0  0  0  0  0  0
   -2.0234    3.7594    0.5774 P   0  0  0  0  0  0  0  0  0  0  0  0
   -0.7995    2.7949    3.0280 H   0  0  0  0  0  0  0  0  0  0  0  0
   -2.3044    2.3996    3.8365 H   0  0  0  0  0  0  0  0  0  0  0  0
   -1.2204    0.4563    2.9945 H   0  0  0  0  0  0  0  0  0  0  0  0
   -3.8615    1.4055    1.9003 H   0  0  0  0  0  0  0  0  0  0  0  0
   -3.4933   -0.3282    2.0529 H   0  0  0  0  0  0  0  0  0  0  0  0
   -3.4876    3.4145   -1.8881 H   0  0  0  0  0  0  0  0  0  0  0  0
   -3.1059    2.0155   -0.7549 H   0  0  0  0  0  0  0  0  0  0  0  0
   -1.5580    1.1017   -2.4791 H   0  0  0  0  0  0  0  0  0  0  0  0
   -1.9334    2.4427   -3.5825 H   0  0  0  0  0  0  0  0  0  0  0  0
   -2.3968   -0.0731   -4.6168 H   0  0  0  0  0  0  0  0  0  0  0  0
   -4.2128    0.1506   -4.9271 H   0  0  0  0  0  0  0  0  0  0  0  0
   -3.0713    1.4908   -5.2512 H   0  0  0  0  0  0  0  0  0  0  0  0
   -4.5142    2.8795   -3.8867 H   0  0  0  0  0  0  0  0  0  0  0  0
   -5.0832    2.2012   -2.2693 H   0  0  0  0  0  0  0  0  0  0  0  0
   -5.4795    1.3849   -3.7993 H   0  0  0  0  0  0  0  0  0  0  0  0
   -3.0324   -0.8319   -2.5724 H   0  0  0  0  0  0  0  0  0  0  0  0
   -4.8181   -0.3945   -2.7620 H   0  0  0  0  0  0  0  0  0  0  0  0
   -3.8917    0.2595   -1.3651 H   0  0  0  0  0  0  0  0  0  0  0  0
   -5.5543    0.5532    3.6812 H   0  0  0  0  0  0  0  0  0  0  0  0
   -3.9195    0.2848    6.2907 H   0  0  0  0  0  0  0  0  0  0  0  0
   -5.7086    0.1892    6.2079 H   0  0  0  0  0  0  0  0  0  0  0  0
   -4.6987   -1.9525    6.5378 H   0  0  0  0  0  0  0  0  0  0  0  0
   -3.6360   -1.7738    5.0601 H   0  0  0  0  0  0  0  0  0  0  0  0
   -5.7599   -1.5822    3.6945 H   0  0  0  0  0  0  0  0  0  0  0  0
   -6.6725   -1.5791    5.2138 H   0  0  0  0  0  0  0  0  0  0  0  0
   -6.3350   -3.8475    5.7148 H   0  0  0  0  0  0  0  0  0  0  0  0
   -7.0351   -3.5961    4.1215 H   0  0  0  0  0  0  0  0  0  0  0  0
   -5.7343   -5.5328    4.3279 H   0  0  0  0  0  0  0  0  0  0  0  0
   -4.2024   -4.6531    4.6978 H   0  0  0  0  0  0  0  0  0  0  0  0
   -4.1786   -3.8239    2.3248 H   0  0  0  0  0  0  0  0  0  0  0  0
   -5.7837   -4.5969    2.0734 H   0  0  0  0  0  0  0  0  0  0  0  0
   -4.7878   -6.7111    3.0847 H   0  0  0  0  0  0  0  0  0  0  0  0
   -3.2297   -5.8738    3.1606 H   0  0  0  0  0  0  0  0  0  0  0  0
   -4.7389   -6.4732    0.5776 H   0  0  0  0  0  0  0  0  0  0  0  0
   -3.4155   -7.4684    1.2634 H   0  0  0  0  0  0  0  0  0  0  0  0
   -2.6443   -6.1349   -0.5750 H   0  0  0  0  0  0  0  0  0  0  0  0
   -3.0824   -4.5824    0.1914 H   0  0  0  0  0  0  0  0  0  0  0  0
   -1.0734   -6.6893    1.1703 H   0  0  0  0  0  0  0  0  0  0  0  0
   -1.4286   -5.1287    2.0585 H   0  0  0  0  0  0  0  0  0  0  0  0
   -0.7550   -3.9369   -0.0730 H   0  0  0  0  0  0  0  0  0  0  0  0
   -0.3257   -5.5043   -0.7953 H   0  0  0  0  0  0  0  0  0  0  0  0
    1.2929   -5.9778    0.9516 H   0  0  0  0  0  0  0  0  0  0  0  0
    0.9252   -4.3493    1.7062 H   0  0  0  0  0  0  0  0  0  0  0  0
    1.6382   -3.1641   -0.1818 H   0  0  0  0  0  0  0  0  0  0  0  0
    1.9792   -4.6210   -1.1759 H   0  0  0  0  0  0  0  0  0  0  0  0
    3.3067   -3.7681    1.4625 H   0  0  0  0  0  0  0  0  0  0  0  0
    3.5814   -5.3654    0.6387 H   0  0  0  0  0  0  0  0  0  0  0  0
    5.3668   -3.7764    0.0966 H   0  0  0  0  0  0  0  0  0  0  0  0
    4.4277   -4.2419   -1.3399 H   0  0  0  0  0  0  0  0  0  0  0  0
    3.1372   -2.0630   -1.1470 H   0  0  0  0  0  0  0  0  0  0  0  0
    4.1656   -1.6047    0.2853 H   0  0  0  0  0  0  0  0  0  0  0  0
    4.9508   -1.7248   -2.6146 H   0  0  0  0  0  0  0  0  0  0  0  0
    6.1689   -2.2409   -1.3536 H   0  0  0  0  0  0  0  0  0  0  0  0
    5.3923   -0.5859   -1.3088 H   0  0  0  0  0  0  0  0  0  0  0  0
    0.0617   -0.3215    1.7230 H   0  0  0  0  0  0  0  0  0  0  0  0
    1.7512    0.1428    0.0400 H   0  0  0  0  0  0  0  0  0  0  0  0
    0.7708    1.4135   -0.7274 H   0  0  0  0  0  0  0  0  0  0  0  0
    1.8502    1.5001    2.1511 H   0  0  0  0  0  0  0  0  0  0  0  0
    0.7797    2.6993    1.3818 H   0  0  0  0  0  0  0  0  0  0  0  0
    2.4305    3.2301   -0.2477 H   0  0  0  0  0  0  0  0  0  0  0  0
    3.5200    1.8969    0.2204 H   0  0  0  0  0  0  0  0  0  0  0  0
    2.5415    4.2353    1.9758 H   0  0  0  0  0  0  0  0  0  0  0  0
    3.6056    2.9255    2.5054 H   0  0  0  0  0  0  0  0  0  0  0  0
    5.0028    4.8640    2.0063 H   0  0  0  0  0  0  0  0  0  0  0  0
    5.3501    3.5785    0.8527 H   0  0  0  0  0  0  0  0  0  0  0  0
    3.8948    4.6768   -0.8828 H   0  0  0  0  0  0  0  0  0  0  0  0
    3.5804    5.9988    0.2397 H   0  0  0  0  0  0  0  0  0  0  0  0
    6.4406    5.2604   -0.5461 H   0  0  0  0  0  0  0  0  0  0  0  0
    5.8864    6.5794    0.4843 H   0  0  0  0  0  0  0  0  0  0  0  0
    4.6119    7.6575   -1.1998 H   0  0  0  0  0  0  0  0  0  0  0  0
    6.2846    7.5471   -1.7370 H   0  0  0  0  0  0  0  0  0  0  0  0
    4.8383    7.2340   -3.5408 H   0  0  0  0  0  0  0  0  0  0  0  0
    3.8732    5.9732   -2.7735 H   0  0  0  0  0  0  0  0  0  0  0  0
    6.1694    4.5436   -2.8907 H   0  0  0  0  0  0  0  0  0  0  0  0
    6.7768    5.9667   -3.7805 H   0  0  0  0  0  0  0  0  0  0  0  0
    5.0737    5.8949   -5.4408 H   0  0  0  0  0  0  0  0  0  0  0  0
    4.1705    4.6112   -4.6064 H   0  0  0  0  0  0  0  0  0  0  0  0
    6.9823    4.6514   -5.8621 H   0  0  0  0  0  0  0  0  0  0  0  0
    6.4922    3.1852   -5.0766 H   0  0  0  0  0  0  0  0  0  0  0  0
    6.0828    2.8912   -7.3674 H   0  0  0  0  0  0  0  0  0  0  0  0
    5.3852    4.5376   -7.5751 H   0  0  0  0  0  0  0  0  0  0  0  0
    3.6639    3.1082   -8.0155 H   0  0  0  0  0  0  0  0  0  0  0  0
    3.2625    3.9075   -6.5224 H   0  0  0  0  0  0  0  0  0  0  0  0
    2.4159    1.7146   -6.7314 H   0  0  0  0  0  0  0  0  0  0  0  0
    3.9772    0.9212   -6.8790 H   0  0  0  0  0  0  0  0  0  0  0  0
    2.8150    0.5950   -4.7291 H   0  0  0  0  0  0  0  0  0  0  0  0
    2.8152    2.3160   -4.4074 H   0  0  0  0  0  0  0  0  0  0  0  0
    4.9765    2.2360   -3.5633 H   0  0  0  0  0  0  0  0  0  0  0  0
    5.5578    1.0863   -4.8299 H   0  0  0  0  0  0  0  0  0  0  0  0
    4.6615    0.5093   -3.4317 H   0  0  0  0  0  0  0  0  0  0  0  0
   -4.9089    2.7518    4.1109 H   0  0  0  0  0  0  0  0  0  0  0  0
   -0.8593   -1.6326    0.3070 H   0  0  0  0  0  0  0  0  0  0  0  0
   -2.1467    5.7967    1.5370 H   0  0  0  0  0  0  0  0  0  0  0  0
   -0.5209    5.3759    0.1002 H   0  0  0  0  0  0  0  0  0  0  0  0
   -3.4244    3.9566    0.5439 H   0  0  0  0  0  0  0  0  0  0  0  0
  1  2  1  0
  1 52  1  0
  2  3  1  0
  2 46  1  0
  3 47  1  0
  4  5  1  0
  4 53  1  0
 45  5  1  1
  6 45  1  0
  7 45  1  0
  8 45  1  0
  9 10  1  0
  9 47  1  0
  9 48  1  0
 10 11  1  0
 11 12  1  0
 12 13  1  0
 13 14  1  0
 14 15  1  0
 15 16  1  0
 16 17  1  0
 17 18  1  0
 18 19  1  0
 19 20  1  0
 20 21  1  0
 21 22  1  0
 22 23  1  0
 23 24  1  0
 24 25  1  0
 25 26  1  0
 27 28  1  0
 27 46  1  0
 27 49  1  0
 28 29  1  0
 29 30  1  0
 30 31  1  0
 31 32  1  0
 32 33  1  0
 33 34  1  0
 34 35  1  0
 35 36  1  0
 36 37  1  0
 37 38  1  0
 38 39  1  0
 39 40  1  0
 40 41  1  0
 41 42  1  0
 42 43  1  0
 43 44  1  0
 50 54  1  0
 51 54  1  0
 52 54  1  0
 53 54  1  0
  1 55  1  0
  1 56  1  0
  2 57  1  1
  3 58  1  0
  3 59  1  0
  4 60  1  0
  4 61  1  0
  5 62  1  0
  5 63  1  0
  6 64  1  0
  6 65  1  0
  6 66  1  0
  7 67  1  0
  7 68  1  0
  7 69  1  0
  8 70  1  0
  8 71  1  0
  8 72  1  0
  9 73  1  0
 10 74  1  0
 10 75  1  0
 11 76  1  0
 11 77  1  0
 12 78  1  0
 12 79  1  0
 13 80  1  0
 13 81  1  0
 14 82  1  0
 14 83  1  0
 15 84  1  0
 15 85  1  0
 16 86  1  0
 16 87  1  0
 17 88  1  0
 17 89  1  0
 18 90  1  0
 18 91  1  0
 19 92  1  0
 19 93  1  0
 20 94  1  0
 20 95  1  0
 21 96  1  0
 21 97  1  0
 22 98  1  0
 22 99  1  0
 23100  1  0
 23101  1  0
 24102  1  0
 24103  1  0
 25104  1  0
 25105  1  0
 26106  1  0
 26107  1  0
 26108  1  0
 27109  1  1
 28110  1  0
 28111  1  0
 29112  1  0
 29113  1  0
 30114  1  0
 30115  1  0
 31116  1  0
 31117  1  0
 32118  1  0
 32119  1  0
 33120  1  0
 33121  1  0
 34122  1  0
 34123  1  0
 35124  1  0
 35125  1  0
 36126  1  0
 36127  1  0
 37128  1  0
 37129  1  0
 38130  1  0
 38131  1  0
 39132  1  0
 39133  1  0
 40134  1  0
 40135  1  0
 41136  1  0
 41137  1  0
 42138  1  0
 42139  1  0
 43140  1  0
 43141  1  0
 44142  1  0
 44143  1  0
 44144  1  0
 48145  1  0
 49146  1  0
 50147  1  0
 51148  1  0
 54149  1  0
M  CHG  1  45   1
M  END
$$$$
PHOSPHATIDYLCHOLINE TRANSFER PROTEIN
     RDKit          3D

149148  0  0  0  0  0  0  0  0999 V2000
   -1.3824    2.2076    0.8726 C   0  0  0  0  0  0  0  0  0  0  0  0
   -1.6086    3.4333    1.7102 C   0  0  1  0  0  0  0  0  0  0  0  0
   -0.3101    3.8306    2.3494 C   0  0  0  0  0  0  0  0  0  0  0  0
   -0.8015   -2.5100    2.5684 C   0  0  0  0  0  0  0  0  0  0  0  0
   -1.0447   -3.1351    3.9215 C   0  0  0  0  0  0  0  0  0  0  0  0
    0.1819   -4.6466    5.2601 C   0  0  0  0  0  0  0  0  0  0  0  0
    0.1963   -4.9821    2.9654 C   0  0  0  0  0  0  0  0  0  0  0  0
   -1.7697   -5.3816    4.2527 C   0  0  0  0  0  0  0  0  0  0  0  0
    1.3981    3.4199    3.7551 C   0  0  0  0  0  0  0  0  0  0  0  0
    2.4310    2.5364    4.2117 C   0  0  0  0  0  0  0  0  0  0  0  0
    3.0294    1.5474    3.2125 C   0  0  0  0  0  0  0  0  0  0  0  0
    4.1154    0.7858    3.8900 C   0  0  0  0  0  0  0  0  0  0  0  0
    4.8615   -0.2967    3.2810 C   0  0  0  0  0  0  0  0  0  0  0  0
    5.6386   -0.1738    2.0324 C   0  0  0  0  0  0  0  0  0  0  0  0
    4.9363    0.0327    0.7472 C   0  0  0  0  0  0  0  0  0  0  0  0
    4.0118   -1.1536    0.4331 C   0  0  0  0  0  0  0  0  0  0  0  0
    3.3289   -1.0154   -0.8839 C   0  0  0  0  0  0  0  0  0  0  0  0
    2.4327   -2.2315   -1.1388 C   0  0  0  0  0  0  0  0  0  0  0  0
    1.7232   -2.1524   -2.4373 C   0  0  0  0  0  0  0  0  0  0  0  0
    0.8323   -3.3398   -2.7314 C   0  0  0  0  0  0  0  0  0  0  0  0
   -0.2243   -3.4962   -1.6942 C   0  0  0  0  0  0  0  0  0  0  0  0
   -1.1579   -4.6608   -1.9555 C   0  0  0  0  0  0  0  0  0  0  0  0
   -2.2015   -4.7105   -0.8519 C   0  0  0  0  0  0  0  0  0  0  0  0
   -3.1891   -5.8192   -1.0002 C   0  0  0  0  0  0  0  0  0  0  0  0
   -4.2214   -5.8157    0.1273 C   0  0  0  0  0  0  0  0  0  0  0  0
   -4.9938   -4.5109    0.1403 C   0  0  0  0  0  0  0  0  0  0  0  0
   -3.3267    4.8320    1.5318 C   0  0  1  0  0  0  0  0  0  0  0  0
   -4.3524    5.6202    0.8143 C   0  0  0  0  0  0  0  0  0  0  0  0
   -3.8645    7.0064    0.5184 C   0  0  0  0  0  0  0  0  0  0  0  0
   -2.7661    7.1333   -0.4769 C   0  0  0  0  0  0  0  0  0  0  0  0
   -3.2932    6.7445   -1.8679 C   0  0  0  0  0  0  0  0  0  0  0  0
   -2.2453    6.9302   -2.8970 C   0  0  0  0  0  0  0  0  0  0  0  0
   -1.0593    6.0191   -2.7994 C   0  0  0  0  0  0  0  0  0  0  0  0
   -0.0199    6.3847   -3.8467 C   0  0  0  0  0  0  0  0  0  0  0  0
    1.1475    5.4154   -3.8916 C   0  0  0  0  0  0  0  0  0  0  0  0
    0.6387    4.0569   -4.3572 C   0  0  0  0  0  0  0  0  0  0  0  0
    1.7877    3.0917   -4.3927 C   0  0  0  0  0  0  0  0  0  0  0  0
    1.2644    1.7637   -4.9641 C   0  0  0  0  0  0  0  0  0  0  0  0
    0.1258    1.1981   -4.1805 C   0  0  0  0  0  0  0  0  0  0  0  0
   -0.3065   -0.1032   -4.8560 C   0  0  0  0  0  0  0  0  0  0  0  0
   -1.4738   -0.7331   -4.1338 C   0  0  0  0  0  0  0  0  0  0  0  0
   -2.7019    0.1671   -4.1174 C   0  0  0  0  0  0  0  0  0  0  0  0
   -3.8455   -0.5135   -3.3724 C   0  0  0  0  0  0  0  0  0  0  0  0
   -4.2021   -1.8364   -4.0519 C   0  0  0  0  0  0  0  0  0  0  0  0
   -0.6270   -4.4853    4.0483 N   0  0  2  0  0  0  0  0  0  0  0  0
   -2.1126    4.5402    0.9786 O   0  0  0  0  0  0  0  0  0  0  0  0
    0.2187    2.8766    3.2265 O   0  0  0  0  0  0  0  0  0  0  0  0
    0.9283    4.0608    5.0250 O   0  0  0  0  0  0  0  0  0  0  0  0
   -2.9610    5.8255    2.6284 O   0  0  0  0  0  0  0  0  0  0  0  0
   -0.9275    0.0296   -0.4207 O   0  0  0  0  0  0  0  0  0  0  0  0
    0.4164    0.4251    0.3631 O   0  0  0  0  0  0  0  0  0  0  0  0
   -0.8836    1.2561    1.7638 O   0  0  0  0  0  0  0  0  0  0  0  0
   -1.2526   -1.2083    2.5946 O   0  0  0  0  0  0  0  0  0  0  0  0
   -0.8353   -0.3053    1.2283 P   0  0  0  0  0  0  0  0  0  0  0  0
   -2.3517    1.8355    0.4922 H   0  0  0  0  0  0  0  0  0  0  0  0
   -0.6656    2.4241    0.0295 H   0  0  0  0  0  0  0  0  0  0  0  0
   -2.3481    3.1616    2.4983 H   0  0  0  0  0  0  0  0  0  0  0  0
    0.4190    3.9519    1.4935 H   0  0  0  0  0  0  0  0  0  0  0  0
   -0.3939    4.8221    2.8155 H   0  0  0  0  0  0  0  0  0  0  0  0
    0.2687   -2.5337    2.3617 H   0  0  0  0  0  0  0  0  0  0  0  0
   -1.3443   -3.0307    1.7594 H   0  0  0  0  0  0  0  0  0  0  0  0
   -2.1551   -3.0901    4.1288 H   0  0  0  0  0  0  0  0  0  0  0  0
   -0.5997   -2.5324    4.7361 H   0  0  0  0  0  0  0  0  0  0  0  0
    0.2163   -5.6770    5.6099 H   0  0  0  0  0  0  0  0  0  0  0  0
   -0.0852   -3.8927    6.0282 H   0  0  0  0  0  0  0  0  0  0  0  0
    1.2268   -4.3829    4.9563 H   0  0  0  0  0  0  0  0  0  0  0  0
   -0.3286   -5.1074    2.0228 H   0  0  0  0  0  0  0  0  0  0  0  0
    0.5436   -5.9911    3.2765 H   0  0  0  0  0  0  0  0  0  0  0  0
    1.0833   -4.3444    2.9286 H   0  0  0  0  0  0  0  0  0  0  0  0
   -2.1553   -5.7013    3.2804 H   0  0  0  0  0  0  0  0  0  0  0  0
   -1.4939   -6.2578    4.8691 H   0  0  0  0  0  0  0  0  0  0  0  0
   -2.4941   -4.7912    4.8339 H   0  0  0  0  0  0  0  0  0  0  0  0
    1.7364    4.3342    3.2504 H   0  0  0  0  0  0  0  0  0  0  0  0
    3.3046    3.1238    4.5974 H   0  0  0  0  0  0  0  0  0  0  0  0
    2.0280    1.9280    5.0908 H   0  0  0  0  0  0  0  0  0  0  0  0
    2.2186    0.8537    2.9323 H   0  0  0  0  0  0  0  0  0  0  0  0
    3.4486    2.1503    2.3957 H   0  0  0  0  0  0  0  0  0  0  0  0
    4.8739    1.5382    4.3284 H   0  0  0  0  0  0  0  0  0  0  0  0
    3.6426    0.3426    4.8505 H   0  0  0  0  0  0  0  0  0  0  0  0
    5.5589   -0.8005    4.0682 H   0  0  0  0  0  0  0  0  0  0  0  0
    4.0858   -1.1226    3.0491 H   0  0  0  0  0  0  0  0  0  0  0  0
    6.1787   -1.1831    1.9220 H   0  0  0  0  0  0  0  0  0  0  0  0
    6.5265    0.5204    2.1465 H   0  0  0  0  0  0  0  0  0  0  0  0
    5.7376    0.0562   -0.0473 H   0  0  0  0  0  0  0  0  0  0  0  0
    4.3368    0.9225    0.7428 H   0  0  0  0  0  0  0  0  0  0  0  0
    4.6810   -2.0448    0.3822 H   0  0  0  0  0  0  0  0  0  0  0  0
    3.3005   -1.3253    1.2648 H   0  0  0  0  0  0  0  0  0  0  0  0
    2.7618   -0.1014   -0.9758 H   0  0  0  0  0  0  0  0  0  0  0  0
    4.0755   -1.0549   -1.7219 H   0  0  0  0  0  0  0  0  0  0  0  0
    3.0775   -3.1428   -1.1467 H   0  0  0  0  0  0  0  0  0  0  0  0
    1.7048   -2.3612   -0.3213 H   0  0  0  0  0  0  0  0  0  0  0  0
    2.5020   -2.1329   -3.2554 H   0  0  0  0  0  0  0  0  0  0  0  0
    1.1640   -1.1911   -2.5718 H   0  0  0  0  0  0  0  0  0  0  0  0
    0.3086   -3.2006   -3.7228 H   0  0  0  0  0  0  0  0  0  0  0  0
    1.4498   -4.2484   -2.8727 H   0  0  0  0  0  0  0  0  0  0  0  0
   -0.7486   -2.5525   -1.4977 H   0  0  0  0  0  0  0  0  0  0  0  0
    0.2940   -3.7530   -0.7422 H   0  0  0  0  0  0  0  0  0  0  0  0
   -1.7004   -4.4524   -2.9006 H   0  0  0  0  0  0  0  0  0  0  0  0
   -0.6193   -5.6006   -2.0681 H   0  0  0  0  0  0  0  0  0  0  0  0
   -1.7491   -4.7711    0.1451 H   0  0  0  0  0  0  0  0  0  0  0  0
   -2.7792   -3.7399   -0.8690 H   0  0  0  0  0  0  0  0  0  0  0  0
   -3.7640   -5.7607   -1.9455 H   0  0  0  0  0  0  0  0  0  0  0  0
   -2.6655   -6.8051   -0.9196 H   0  0  0  0  0  0  0  0  0  0  0  0
   -4.9568   -6.6270   -0.0396 H   0  0  0  0  0  0  0  0  0  0  0  0
   -3.7754   -5.9716    1.1199 H   0  0  0  0  0  0  0  0  0  0  0  0
   -5.0885   -4.1546   -0.9155 H   0  0  0  0  0  0  0  0  0  0  0  0
   -6.0186   -4.6506    0.5378 H   0  0  0  0  0  0  0  0  0  0  0  0
   -4.4999   -3.7549    0.7829 H   0  0  0  0  0  0  0  0  0  0  0  0
   -3.7579    4.0904    2.2244 H   0  0  0  0  0  0  0  0  0  0  0  0
   -4.7408    5.1122   -0.1054 H   0  0  0  0  0  0  0  0  0  0  0  0
   -5.2690    5.7408    1.4523 H   0  0  0  0  0  0  0  0  0  0  0  0
   -4.7054    7.6648    0.1691 H   0  0  0  0  0  0  0  0  0  0  0  0
   -3.5200    7.4542    1.5008 H   0  0  0  0  0  0  0  0  0  0  0  0
   -1.8963    6.4908   -0.2455 H   0  0  0  0  0  0  0  0  0  0  0  0
   -2.4052    8.1961   -0.5548 H   0  0  0  0  0  0  0  0  0  0  0  0
   -4.2149    7.3048   -2.0945 H   0  0  0  0  0  0  0  0  0  0  0  0
   -3.5812    5.6609   -1.8619 H   0  0  0  0  0  0  0  0  0  0  0  0
   -2.7105    6.8675   -3.9309 H   0  0  0  0  0  0  0  0  0  0  0  0
   -1.8474    7.9894   -2.8821 H   0  0  0  0  0  0  0  0  0  0  0  0
   -0.6384    6.0802   -1.7863 H   0  0  0  0  0  0  0  0  0  0  0  0
   -1.4078    4.9815   -2.9507 H   0  0  0  0  0  0  0  0  0  0  0  0
    0.3948    7.3765   -3.6241 H   0  0  0  0  0  0  0  0  0  0  0  0
   -0.4881    6.4023   -4.8518 H   0  0  0  0  0  0  0  0  0  0  0  0
    1.6560    5.3192   -2.9313 H   0  0  0  0  0  0  0  0  0  0  0  0
    1.8421    5.7984   -4.6428 H   0  0  0  0  0  0  0  0  0  0  0  0
   -0.0850    3.6508   -3.6033 H   0  0  0  0  0  0  0  0  0  0  0  0
    0.1453    4.1703   -5.3244 H   0  0  0  0  0  0  0  0  0  0  0  0
    2.6036    3.4687   -5.0163 H   0  0  0  0  0  0  0  0  0  0  0  0
    2.1294    2.8815   -3.3677 H   0  0  0  0  0  0  0  0  0  0  0  0
    0.9241    1.9826   -5.9962 H   0  0  0  0  0  0  0  0  0  0  0  0
    2.1162    1.0458   -4.9269 H   0  0  0  0  0  0  0  0  0  0  0  0
    0.3922    0.9967   -3.1312 H   0  0  0  0  0  0  0  0  0  0  0  0
   -0.7569    1.8557   -4.2077 H   0  0  0  0  0  0  0  0  0  0  0  0
    0.5400   -0.7978   -4.8436 H   0  0  0  0  0  0  0  0  0  0  0  0
   -0.5517    0.0773   -5.9254 H   0  0  0  0  0  0  0  0  0  0  0  0
   -1.7369   -1.6795   -4.6126 H   0  0  0  0  0  0  0  0  0  0  0  0
   -1.1498   -0.8801   -3.0929 H   0  0  0  0  0  0  0  0  0  0  0  0
   -3.0428    0.4269   -5.1314 H   0  0  0  0  0  0  0  0  0  0  0  0
   -2.5135    1.1093   -3.5444 H   0  0  0  0  0  0  0  0  0  0  0  0
   -4.7229    0.1461   -3.4186 H   0  0  0  0  0  0  0  0  0  0  0  0
   -3.5618   -0.6874   -2.3261 H   0  0  0  0  0  0  0  0  0  0  0  0
   -4.2883   -1.7254   -5.1312 H   0  0  0  0  0  0  0  0  0  0  0  0
   -5.1291   -2.2063   -3.5619 H   0  0  0  0  0  0  0  0  0  0  0  0
   -3.4149   -2.6072   -3.8095 H   0  0  0  0  0  0  0  0  0  0  0  0
    0.2449    4.7027    4.7471 H   0  0  0  0  0  0  0  0  0  0  0  0
   -3.8533    6.0358    3.0022 H   0  0  0  0  0  0  0  0  0  0  0  0
   -1.7374   -0.3508   -0.8376 H   0  0  0  0  0  0  0  0  0  0  0  0
    1.2845    0.3536    0.8098 H   0  0  0  0  0  0  0  0  0  0  0  0
   -1.5359   -0.1059    2.4160 H   0  0  0  0  0  0  0  0  0  0  0  0
  1  2  1  0
  1 52  1  0
  2  3  1  0
  2 46  1  0
  3 47  1  0
  4  5  1  0
  4 53  1  0
 45  5  1  6
  6 45  1  0
  7 45  1  0
  8 45  1  0
  9 10  1  0
  9 47  1  0
  9 48  1  0
 10 11  1  0
 11 12  1  0
 12 13  1  0
 13 14  1  0
 14 15  1  0
 15 16  1  0
 16 17  1  0
 17 18  1  0
 18 19  1  0
 19 20  1  0
 20 21  1  0
 21 22  1  0
 22 23  1  0
 23 24  1  0
 24 25  1  0
 25 26  1  0
 27 28  1  0
 27 46  1  0
 27 49  1  0
 28 29  1  0
 29 30  1  0
 30 31  1  0
 31 32  1  0
 32 33  1  0
 33 34  1  0
 34 35  1  0
 35 36  1  0
 36 37  1  0
 37 38  1  0
 38 39  1  0
 39 40  1  0
 40 41  1  0
 41 42  1  0
 42 43  1  0
 43 44  1  0
 50 54  1  0
 51 54  1  0
 52 54  1  0
 53 54  1  0
  1 55  1  0
  1 56  1  0
  2 57  1  1
  3 58  1  0
  3 59  1  0
  4 60  1  0
  4 61  1  0
  5 62  1  0
  5 63  1  0
  6 64  1  0
  6 65  1  0
  6 66  1  0
  7 67  1  0
  7 68  1  0
  7 69  1  0
  8 70  1  0
  8 71  1  0
  8 72  1  0
  9 73  1  0
 10 74  1  0
 10 75  1  0
 11 76  1  0
 11 77  1  0
 12 78  1  0
 12 79  1  0
 13 80  1  0
 13 81  1  0
 14 82  1  0
 14 83  1  0
 15 84  1  0
 15 85  1  0
 16 86  1  0
 16 87  1  0
 17 88  1  0
 17 89  1  0
 18 90  1  0
 18 91  1  0
 19 92  1  0
 19 93  1  0
 20 94  1  0
 20 95  1  0
 21 96  1  0
 21 97  1  0
 22 98  1  0
 22 99  1  0
 23100  1  0
 23101  1  0
 24102  1  0
 24103  1  0
 25104  1  0
 25105  1  0
 26106  1  0
 26107  1  0
 26108  1  0
 27109  1  1
 28110  1  0
 28111  1  0
 29112  1  0
 29113  1  0
 30114  1  0
 30115  1  0
 31116  1  0
 31117  1  0
 32118  1  0
 32119  1  0
 33120  1  0
 33121  1  0
 34122  1  0
 34123  1  0
 35124  1  0
 35125  1  0
 36126  1  0
 36127  1  0
 37128  1  0
 37129  1  0
 38130  1  0
 38131  1  0
 39132  1  0
 39133  1  0
 40134  1  0
 40135  1  0
 41136  1  0
 41137  1  0
 42138  1  0
 42139  1  0
 43140  1  0
 43141  1  0
 44142  1  0
 44143  1  0
 44144  1  0
 48145  1  0
 49146  1  0
 50147  1  0
 51148  1  0
 54149  1  0
M  CHG  1  45   1
M  END
$$$$
PHOSPHATIDYLCHOLINE TRANSFER PROTEIN
     RDKit          3D

149148  0  0  0  0  0  0  0  0999 V2000
   -1.3151   -2.1352   -0.1326 C   0  0  0  0  0  0  0  0  0  0  0  0
   -2.2315   -3.3121    0.2031 C   0  0  1  0  0  0  0  0  0  0  0  0
   -3.6421   -2.6863    0.1867 C   0  0  0  0  0  0  0  0  0  0  0  0
    0.7929    0.2786   -3.6445 C   0  0  0  0  0  0  0  0  0  0  0  0
    1.8000    1.2178   -4.1983 C   0  0  0  0  0  0  0  0  0  0  0  0
    4.0703    1.7533   -4.6376 C   0  0  0  0  0  0  0  0  0  0  0  0
    3.5996   -0.2462   -3.5621 C   0  0  0  0  0  0  0  0  0  0  0  0
    3.3006    1.7732   -2.4275 C   0  0  0  0  0  0  0  0  0  0  0  0
   -4.8454   -1.1513    1.4708 C   0  0  0  0  0  0  0  0  0  0  0  0
   -4.6218    0.2526    1.9256 C   0  0  0  0  0  0  0  0  0  0  0  0
   -3.8589    1.1475    1.0015 C   0  0  0  0  0  0  0  0  0  0  0  0
   -3.6373    2.4388    1.7518 C   0  0  0  0  0  0  0  0  0  0  0  0
   -2.9325    3.5138    1.0443 C   0  0  0  0  0  0  0  0  0  0  0  0
   -3.6852    4.1212   -0.1478 C   0  0  0  0  0  0  0  0  0  0  0  0
   -2.8454    5.1612   -0.8056 C   0  0  0  0  0  0  0  0  0  0  0  0
   -3.4279    5.9685   -1.8801 C   0  0  0  0  0  0  0  0  0  0  0  0
   -4.0053    5.3766   -3.0776 C   0  0  0  0  0  0  0  0  0  0  0  0
   -3.1353    4.5116   -3.9522 C   0  0  0  0  0  0  0  0  0  0  0  0
   -3.9197    4.0502   -5.1606 C   0  0  0  0  0  0  0  0  0  0  0  0
   -3.1790    3.1412   -6.0831 C   0  0  0  0  0  0  0  0  0  0  0  0
   -2.8300    1.8958   -5.3457 C   0  0  0  0  0  0  0  0  0  0  0  0
   -2.1341    0.8378   -6.1842 C   0  0  0  0  0  0  0  0  0  0  0  0
   -3.0034    0.4459   -7.3612 C   0  0  0  0  0  0  0  0  0  0  0  0
   -2.3935   -0.6592   -8.1697 C   0  0  0  0  0  0  0  0  0  0  0  0
   -1.0593   -0.3882   -8.7689 C   0  0  0  0  0  0  0  0  0  0  0  0
   -0.5962   -1.6262   -9.5544 C   0  0  0  0  0  0  0  0  0  0  0  0
   -1.7697   -5.4935   -0.3074 C   0  0  1  0  0  0  0  0  0  0  0  0
   -0.5490   -6.0253   -0.9584 C   0  0  0  0  0  0  0  0  0  0  0  0
    0.6712   -5.1618   -0.8049 C   0  0  0  0  0  0  0  0  0  0  0  0
    1.0646   -4.8616    0.5930 C   0  0  0  0  0  0  0  0  0  0  0  0
    2.3135   -3.9643    0.5480 C   0  0  0  0  0  0  0  0  0  0  0  0
    2.6927   -3.5814    1.9391 C   0  0  0  0  0  0  0  0  0  0  0  0
    3.9157   -2.6750    2.0220 C   0  0  0  0  0  0  0  0  0  0  0  0
    4.1595   -2.3018    3.4637 C   0  0  0  0  0  0  0  0  0  0  0  0
    5.3250   -1.3940    3.6891 C   0  0  0  0  0  0  0  0  0  0  0  0
    5.4429   -1.0367    5.1872 C   0  0  0  0  0  0  0  0  0  0  0  0
    5.6606   -2.2163    6.0586 C   0  0  0  0  0  0  0  0  0  0  0  0
    5.7371   -1.8516    7.5500 C   0  0  0  0  0  0  0  0  0  0  0  0
    4.4154   -1.2453    7.9579 C   0  0  0  0  0  0  0  0  0  0  0  0
    4.3646   -0.8436    9.4236 C   0  0  0  0  0  0  0  0  0  0  0  0
    2.9899   -0.2990    9.6859 C   0  0  0  0  0  0  0  0  0  0  0  0
    2.6321    0.8809    8.8426 C   0  0  0  0  0  0  0  0  0  0  0  0
    1.2150    1.3376    9.2060 C   0  0  0  0  0  0  0  0  0  0  0  0
    0.7890    2.5241    8.3803 C   0  0  0  0  0  0  0  0  0  0  0  0
    3.1289    1.1161   -3.7068 N   0  0  2  0  0  0  0  0  0  0  0  0
   -2.1134   -4.2230   -0.8279 O   0  0  0  0  0  0  0  0  0  0  0  0
   -3.6914   -1.8483    1.2800 O   0  0  0  0  0  0  0  0  0  0  0  0
   -5.4903   -1.8352    2.5689 O   0  0  0  0  0  0  0  0  0  0  0  0
   -2.8374   -6.3347   -0.5948 O   0  0  0  0  0  0  0  0  0  0  0  0
   -0.6892   -1.8066   -2.8849 O   0  0  0  0  0  0  0  0  0  0  0  0
    0.5570   -0.3119   -0.8057 O   0  0  0  0  0  0  0  0  0  0  0  0
   -1.7680   -1.6270   -1.3473 O   0  0  0  0  0  0  0  0  0  0  0  0
    0.6553    0.4263   -2.2697 O   0  0  0  0  0  0  0  0  0  0  0  0
   -0.7376   -0.4428   -1.8680 P   0  0  0  0  0  0  0  0  0  0  0  0
   -0.2688   -2.4228   -0.2493 H   0  0  0  0  0  0  0  0  0  0  0  0
   -1.4085   -1.4081    0.6974 H   0  0  0  0  0  0  0  0  0  0  0  0
   -2.0500   -3.7033    1.1967 H   0  0  0  0  0  0  0  0  0  0  0  0
   -4.4307   -3.4628    0.1804 H   0  0  0  0  0  0  0  0  0  0  0  0
   -3.7251   -2.1153   -0.7486 H   0  0  0  0  0  0  0  0  0  0  0  0
    1.0321   -0.7898   -3.8131 H   0  0  0  0  0  0  0  0  0  0  0  0
   -0.1554    0.4559   -4.1823 H   0  0  0  0  0  0  0  0  0  0  0  0
    1.8573    1.1518   -5.3231 H   0  0  0  0  0  0  0  0  0  0  0  0
    1.4635    2.2728   -4.0194 H   0  0  0  0  0  0  0  0  0  0  0  0
    3.5348    2.6582   -5.0421 H   0  0  0  0  0  0  0  0  0  0  0  0
    4.2369    1.0349   -5.4766 H   0  0  0  0  0  0  0  0  0  0  0  0
    4.9854    2.0204   -4.1086 H   0  0  0  0  0  0  0  0  0  0  0  0
    3.7983   -0.7514   -4.5245 H   0  0  0  0  0  0  0  0  0  0  0  0
    2.9682   -0.8354   -2.8662 H   0  0  0  0  0  0  0  0  0  0  0  0
    4.5934   -0.1633   -3.0656 H   0  0  0  0  0  0  0  0  0  0  0  0
    3.7708    1.1050   -1.6564 H   0  0  0  0  0  0  0  0  0  0  0  0
    2.2773    2.0779   -2.1003 H   0  0  0  0  0  0  0  0  0  0  0  0
    3.9434    2.6527   -2.5357 H   0  0  0  0  0  0  0  0  0  0  0  0
   -5.5689   -1.2952    0.6556 H   0  0  0  0  0  0  0  0  0  0  0  0
   -5.6479    0.6987    2.0881 H   0  0  0  0  0  0  0  0  0  0  0  0
   -4.1867    0.2175    2.9515 H   0  0  0  0  0  0  0  0  0  0  0  0
   -4.4863    1.3070    0.0883 H   0  0  0  0  0  0  0  0  0  0  0  0
   -2.9407    0.6364    0.6860 H   0  0  0  0  0  0  0  0  0  0  0  0
   -4.6405    2.8059    2.0630 H   0  0  0  0  0  0  0  0  0  0  0  0
   -3.0877    2.2142    2.6919 H   0  0  0  0  0  0  0  0  0  0  0  0
   -1.9819    3.1302    0.6195 H   0  0  0  0  0  0  0  0  0  0  0  0
   -2.7567    4.3654    1.7469 H   0  0  0  0  0  0  0  0  0  0  0  0
   -3.7682    3.2759   -0.8722 H   0  0  0  0  0  0  0  0  0  0  0  0
   -4.6339    4.4816    0.2502 H   0  0  0  0  0  0  0  0  0  0  0  0
   -2.5360    5.8759    0.0211 H   0  0  0  0  0  0  0  0  0  0  0  0
   -1.8774    4.7309   -1.1432 H   0  0  0  0  0  0  0  0  0  0  0  0
   -4.1860    6.6995   -1.4652 H   0  0  0  0  0  0  0  0  0  0  0  0
   -2.6154    6.7001   -2.2447 H   0  0  0  0  0  0  0  0  0  0  0  0
   -4.9512    4.8101   -2.8044 H   0  0  0  0  0  0  0  0  0  0  0  0
   -4.4214    6.2205   -3.7097 H   0  0  0  0  0  0  0  0  0  0  0  0
   -2.8242    3.6412   -3.3840 H   0  0  0  0  0  0  0  0  0  0  0  0
   -2.2994    5.1395   -4.3195 H   0  0  0  0  0  0  0  0  0  0  0  0
   -4.8537    3.5279   -4.7994 H   0  0  0  0  0  0  0  0  0  0  0  0
   -4.2793    4.9451   -5.7545 H   0  0  0  0  0  0  0  0  0  0  0  0
   -2.2595    3.6801   -6.4027 H   0  0  0  0  0  0  0  0  0  0  0  0
   -3.8532    2.9504   -6.9536 H   0  0  0  0  0  0  0  0  0  0  0  0
   -2.1554    2.0752   -4.4807 H   0  0  0  0  0  0  0  0  0  0  0  0
   -3.7639    1.4535   -4.9393 H   0  0  0  0  0  0  0  0  0  0  0  0
   -1.1482    1.1086   -6.5438 H   0  0  0  0  0  0  0  0  0  0  0  0
   -2.0451   -0.0511   -5.5250 H   0  0  0  0  0  0  0  0  0  0  0  0
   -3.0534    1.3430   -8.0591 H   0  0  0  0  0  0  0  0  0  0  0  0
   -4.0225    0.1655   -7.0601 H   0  0  0  0  0  0  0  0  0  0  0  0
   -3.1120   -0.8952   -9.0088 H   0  0  0  0  0  0  0  0  0  0  0  0
   -2.3601   -1.5542   -7.4908 H   0  0  0  0  0  0  0  0  0  0  0  0
   -0.9781    0.4928   -9.3986 H   0  0  0  0  0  0  0  0  0  0  0  0
   -0.3250   -0.2724   -7.9384 H   0  0  0  0  0  0  0  0  0  0  0  0
   -0.5956   -1.3601  -10.6334 H   0  0  0  0  0  0  0  0  0  0  0  0
   -1.3167   -2.4464   -9.4177 H   0  0  0  0  0  0  0  0  0  0  0  0
    0.3743   -1.9885   -9.1972 H   0  0  0  0  0  0  0  0  0  0  0  0
   -1.6929   -5.4381    0.8022 H   0  0  0  0  0  0  0  0  0  0  0  0
   -0.7656   -6.0700   -2.0612 H   0  0  0  0  0  0  0  0  0  0  0  0
   -0.3217   -7.0630   -0.6473 H   0  0  0  0  0  0  0  0  0  0  0  0
    0.6813   -4.2471   -1.4039 H   0  0  0  0  0  0  0  0  0  0  0  0
    1.5147   -5.7836   -1.2377 H   0  0  0  0  0  0  0  0  0  0  0  0
    1.4144   -5.7649    1.1659 H   0  0  0  0  0  0  0  0  0  0  0  0
    0.3369   -4.2935    1.1801 H   0  0  0  0  0  0  0  0  0  0  0  0
    2.0161   -3.0580   -0.0168 H   0  0  0  0  0  0  0  0  0  0  0  0
    3.1171   -4.4410   -0.0326 H   0  0  0  0  0  0  0  0  0  0  0  0
    1.8418   -2.9998    2.3709 H   0  0  0  0  0  0  0  0  0  0  0  0
    2.8587   -4.4980    2.5466 H   0  0  0  0  0  0  0  0  0  0  0  0
    4.8318   -3.2085    1.6629 H   0  0  0  0  0  0  0  0  0  0  0  0
    3.8230   -1.7992    1.3558 H   0  0  0  0  0  0  0  0  0  0  0  0
    4.3997   -3.2557    4.0123 H   0  0  0  0  0  0  0  0  0  0  0  0
    3.2714   -1.8724    3.9550 H   0  0  0  0  0  0  0  0  0  0  0  0
    5.3171   -0.4586    3.1325 H   0  0  0  0  0  0  0  0  0  0  0  0
    6.3012   -1.9161    3.4622 H   0  0  0  0  0  0  0  0  0  0  0  0
    6.3047   -0.3506    5.3330 H   0  0  0  0  0  0  0  0  0  0  0  0
    4.5508   -0.4457    5.4784 H   0  0  0  0  0  0  0  0  0  0  0  0
    6.6123   -2.7334    5.7908 H   0  0  0  0  0  0  0  0  0  0  0  0
    4.8421   -2.9617    5.9889 H   0  0  0  0  0  0  0  0  0  0  0  0
    5.9624   -2.7380    8.1408 H   0  0  0  0  0  0  0  0  0  0  0  0
    6.5340   -1.1173    7.6615 H   0  0  0  0  0  0  0  0  0  0  0  0
    3.5822   -1.9079    7.7539 H   0  0  0  0  0  0  0  0  0  0  0  0
    4.2915   -0.3038    7.3791 H   0  0  0  0  0  0  0  0  0  0  0  0
    5.1586   -0.1368    9.6963 H   0  0  0  0  0  0  0  0  0  0  0  0
    4.5252   -1.7616   10.0160 H   0  0  0  0  0  0  0  0  0  0  0  0
    2.2103   -1.0837    9.5625 H   0  0  0  0  0  0  0  0  0  0  0  0
    2.8928    0.0089   10.7676 H   0  0  0  0  0  0  0  0  0  0  0  0
    3.3108    1.7093    9.0614 H   0  0  0  0  0  0  0  0  0  0  0  0
    2.6290    0.6744    7.7529 H   0  0  0  0  0  0  0  0  0  0  0  0
    0.5169    0.4955    8.9771 H   0  0  0  0  0  0  0  0  0  0  0  0
    1.1654    1.6056   10.2735 H   0  0  0  0  0  0  0  0  0  0  0  0
    1.6431    3.1414    8.0344 H   0  0  0  0  0  0  0  0  0  0  0  0
    0.2382    2.1651    7.4748 H   0  0  0  0  0  0  0  0  0  0  0  0
    0.1338    3.1576    9.0045 H   0  0  0  0  0  0  0  0  0  0  0  0
   -4.7954   -1.9675    3.2702 H   0  0  0  0  0  0  0  0  0  0  0  0
   -2.7167   -6.6670   -1.5057 H   0  0  0  0  0  0  0  0  0  0  0  0
    0.1443   -2.3114   -2.8449 H   0  0  0  0  0  0  0  0  0  0  0  0
    0.1674   -0.2458    0.1260 H   0  0  0  0  0  0  0  0  0  0  0  0
   -2.1048   -0.4009   -2.2745 H   0  0  0  0  0  0  0  0  0  0  0  0
  1  2  1  0
  1 52  1  0
  2  3  1  0
  2 46  1  0
  3 47  1  0
  4  5  1  0
  4 53  1  0
 45  5  1  6
  6 45  1  0
  7 45  1  0
  8 45  1  0
  9 10  1  0
  9 47  1  0
  9 48  1  0
 10 11  1  0
 11 12  1  0
 12 13  1  0
 13 14  1  0
 14 15  1  0
 15 16  1  0
 16 17  1  0
 17 18  1  0
 18 19  1  0
 19 20  1  0
 20 21  1  0
 21 22  1  0
 22 23  1  0
 23 24  1  0
 24 25  1  0
 25 26  1  0
 27 28  1  0
 27 46  1  0
 27 49  1  0
 28 29  1  0
 29 30  1  0
 30 31  1  0
 31 32  1  0
 32 33  1  0
 33 34  1  0
 34 35  1  0
 35 36  1  0
 36 37  1  0
 37 38  1  0
 38 39  1  0
 39 40  1  0
 40 41  1  0
 41 42  1  0
 42 43  1  0
 43 44  1  0
 50 54  1  0
 51 54  1  0
 52 54  1  0
 53 54  1  0
  1 55  1  0
  1 56  1  0
  2 57  1  1
  3 58  1  0
  3 59  1  0
  4 60  1  0
  4 61  1  0
  5 62  1  0
  5 63  1  0
  6 64  1  0
  6 65  1  0
  6 66  1  0
  7 67  1  0
  7 68  1  0
  7 69  1  0
  8 70  1  0
  8 71  1  0
  8 72  1  0
  9 73  1  0
 10 74  1  0
 10 75  1  0
 11 76  1  0
 11 77  1  0
 12 78  1  0
 12 79  1  0
 13 80  1  0
 13 81  1  0
 14 82  1  0
 14 83  1  0
 15 84  1  0
 15 85  1  0
 16 86  1  0
 16 87  1  0
 17 88  1  0
 17 89  1  0
 18 90  1  0
 18 91  1  0
 19 92  1  0
 19 93  1  0
 20 94  1  0
 20 95  1  0
 21 96  1  0
 21 97  1  0
 22 98  1  0
 22 99  1  0
 23100  1  0
 23101  1  0
 24102  1  0
 24103  1  0
 25104  1  0
 25105  1  0
 26106  1  0
 26107  1  0
 26108  1  0
 27109  1  1
 28110  1  0
 28111  1  0
 29112  1  0
 29113  1  0
 30114  1  0
 30115  1  0
 31116  1  0
 31117  1  0
 32118  1  0
 32119  1  0
 33120  1  0
 33121  1  0
 34122  1  0
 34123  1  0
 35124  1  0
 35125  1  0
 36126  1  0
 36127  1  0
 37128  1  0
 37129  1  0
 38130  1  0
 38131  1  0
 39132  1  0
 39133  1  0
 40134  1  0
 40135  1  0
 41136  1  0
 41137  1  0
 42138  1  0
 42139  1  0
 43140  1  0
 43141  1  0
 44142  1  0
 44143  1  0
 44144  1  0
 48145  1  0
 49146  1  0
 50147  1  0
 51148  1  0
 54149  1  0
M  CHG  1  45   1
M  END
$$$$
PHOSPHATIDYLCHOLINE TRANSFER PROTEIN
     RDKit          3D

149148  0  0  0  0  0  0  0  0999 V2000
   -2.5031    3.0527    0.5397 C   0  0  0  0  0  0  0  0  0  0  0  0
   -2.1290    4.4325    0.1764 C   0  0  1  0  0  0  0  0  0  0  0  0
   -2.1701    5.4268    1.3178 C   0  0  0  0  0  0  0  0  0  0  0  0
   -3.1052   -1.0607    2.8215 C   0  0  0  0  0  0  0  0  0  0  0  0
   -3.3255   -2.5568    2.8777 C   0  0  0  0  0  0  0  0  0  0  0  0
   -3.1522   -4.1215    4.6161 C   0  0  0  0  0  0  0  0  0  0  0  0
   -5.2705   -3.4611    3.9448 C   0  0  0  0  0  0  0  0  0  0  0  0
   -3.9107   -1.9754    5.1514 C   0  0  0  0  0  0  0  0  0  0  0  0
   -3.3704    6.3423    3.0658 C   0  0  0  0  0  0  0  0  0  0  0  0
   -3.6572    5.6045    4.3450 C   0  0  0  0  0  0  0  0  0  0  0  0
   -2.5899    4.5496    4.6640 C   0  0  0  0  0  0  0  0  0  0  0  0
   -3.0140    3.9076    5.9408 C   0  0  0  0  0  0  0  0  0  0  0  0
   -2.0858    2.8300    6.4500 C   0  0  0  0  0  0  0  0  0  0  0  0
   -0.6981    3.3673    6.7216 C   0  0  0  0  0  0  0  0  0  0  0  0
    0.1555    2.2610    7.2638 C   0  0  0  0  0  0  0  0  0  0  0  0
    0.2667    1.1157    6.2982 C   0  0  0  0  0  0  0  0  0  0  0  0
    0.8859    1.5580    5.0012 C   0  0  0  0  0  0  0  0  0  0  0  0
    1.0398    0.4113    3.9959 C   0  0  0  0  0  0  0  0  0  0  0  0
    1.9038   -0.6802    4.5187 C   0  0  0  0  0  0  0  0  0  0  0  0
    2.0959   -1.8238    3.5343 C   0  0  0  0  0  0  0  0  0  0  0  0
    2.7351   -1.4146    2.2516 C   0  0  0  0  0  0  0  0  0  0  0  0
    2.9184   -2.5852    1.2890 C   0  0  0  0  0  0  0  0  0  0  0  0
    3.7793   -3.6646    1.8504 C   0  0  0  0  0  0  0  0  0  0  0  0
    3.9420   -4.7727    0.8621 C   0  0  0  0  0  0  0  0  0  0  0  0
    2.6337   -5.3891    0.4969 C   0  0  0  0  0  0  0  0  0  0  0  0
    2.8576   -6.5324   -0.5091 C   0  0  0  0  0  0  0  0  0  0  0  0
   -1.0939    4.9834   -1.7758 C   0  0  1  0  0  0  0  0  0  0  0  0
   -0.3917    4.2573   -2.8695 C   0  0  0  0  0  0  0  0  0  0  0  0
    1.1215    4.3113   -2.6849 C   0  0  0  0  0  0  0  0  0  0  0  0
    1.8876    3.6435   -3.7738 C   0  0  0  0  0  0  0  0  0  0  0  0
    1.5996    2.1614   -3.9194 C   0  0  0  0  0  0  0  0  0  0  0  0
    1.9438    1.3796   -2.7171 C   0  0  0  0  0  0  0  0  0  0  0  0
    1.7222   -0.0870   -2.7771 C   0  0  0  0  0  0  0  0  0  0  0  0
    0.4234   -0.6844   -2.9404 C   0  0  0  0  0  0  0  0  0  0  0  0
   -0.5195   -0.5867   -4.0296 C   0  0  0  0  0  0  0  0  0  0  0  0
   -0.2244   -1.0423   -5.3982 C   0  0  0  0  0  0  0  0  0  0  0  0
    0.8750   -0.3568   -6.1110 C   0  0  0  0  0  0  0  0  0  0  0  0
    1.0381   -0.9720   -7.5402 C   0  0  0  0  0  0  0  0  0  0  0  0
    2.0897   -0.2676   -8.2847 C   0  0  0  0  0  0  0  0  0  0  0  0
    2.3357   -0.8190   -9.6396 C   0  0  0  0  0  0  0  0  0  0  0  0
    2.9885   -2.1249   -9.7155 C   0  0  0  0  0  0  0  0  0  0  0  0
    2.4345   -3.3076   -9.0370 C   0  0  0  0  0  0  0  0  0  0  0  0
    3.3095   -4.5465   -9.4528 C   0  0  0  0  0  0  0  0  0  0  0  0
    2.7544   -5.7609   -8.7547 C   0  0  0  0  0  0  0  0  0  0  0  0
   -3.9076   -2.9711    4.1105 N   0  0  2  0  0  0  0  0  0  0  0  0
   -0.9061    4.5221   -0.4979 O   0  0  0  0  0  0  0  0  0  0  0  0
   -3.3419    5.4171    2.0255 O   0  0  0  0  0  0  0  0  0  0  0  0
   -4.4410    7.2334    2.8730 O   0  0  0  0  0  0  0  0  0  0  0  0
   -0.4933    6.2969   -1.7849 O   0  0  0  0  0  0  0  0  0  0  0  0
   -1.2625    0.3329    0.4073 O   0  0  0  0  0  0  0  0  0  0  0  0
   -3.6819    0.2304    0.6747 O   0  0  0  0  0  0  0  0  0  0  0  0
   -1.6544    2.3712    1.3892 O   0  0  0  0  0  0  0  0  0  0  0  0
   -2.5313   -0.7742    1.5563 O   0  0  0  0  0  0  0  0  0  0  0  0
   -2.3748    0.8648    1.5506 P   0  0  0  0  0  0  0  0  0  0  0  0
   -2.6882    2.4938   -0.4123 H   0  0  0  0  0  0  0  0  0  0  0  0
   -3.5094    3.0287    1.0528 H   0  0  0  0  0  0  0  0  0  0  0  0
   -2.9094    4.7905   -0.5610 H   0  0  0  0  0  0  0  0  0  0  0  0
   -1.3302    5.2217    2.0126 H   0  0  0  0  0  0  0  0  0  0  0  0
   -1.9575    6.4493    0.9188 H   0  0  0  0  0  0  0  0  0  0  0  0
   -2.4649   -0.7191    3.6331 H   0  0  0  0  0  0  0  0  0  0  0  0
   -4.0617   -0.4919    2.8124 H   0  0  0  0  0  0  0  0  0  0  0  0
   -2.3248   -3.0148    2.7739 H   0  0  0  0  0  0  0  0  0  0  0  0
   -3.9661   -2.8648    2.0250 H   0  0  0  0  0  0  0  0  0  0  0  0
   -3.8275   -4.8928    5.0684 H   0  0  0  0  0  0  0  0  0  0  0  0
   -2.4224   -3.7589    5.3713 H   0  0  0  0  0  0  0  0  0  0  0  0
   -2.6184   -4.6061    3.7750 H   0  0  0  0  0  0  0  0  0  0  0  0
   -5.2378   -4.3174    3.2203 H   0  0  0  0  0  0  0  0  0  0  0  0
   -5.9960   -2.6921    3.6804 H   0  0  0  0  0  0  0  0  0  0  0  0
   -5.5701   -3.8961    4.9230 H   0  0  0  0  0  0  0  0  0  0  0  0
   -2.9631   -2.0466    5.7257 H   0  0  0  0  0  0  0  0  0  0  0  0
   -4.1194   -0.9606    4.7938 H   0  0  0  0  0  0  0  0  0  0  0  0
   -4.7274   -2.2353    5.8894 H   0  0  0  0  0  0  0  0  0  0  0  0
   -2.4379    6.9246    3.1674 H   0  0  0  0  0  0  0  0  0  0  0  0
   -3.8017    6.2776    5.2072 H   0  0  0  0  0  0  0  0  0  0  0  0
   -4.6323    5.0628    4.1923 H   0  0  0  0  0  0  0  0  0  0  0  0
   -2.5961    3.8603    3.8017 H   0  0  0  0  0  0  0  0  0  0  0  0
   -1.6346    5.0843    4.7977 H   0  0  0  0  0  0  0  0  0  0  0  0
   -4.0130    3.4721    5.8102 H   0  0  0  0  0  0  0  0  0  0  0  0
   -3.0679    4.7064    6.7178 H   0  0  0  0  0  0  0  0  0  0  0  0
   -2.4736    2.4072    7.3924 H   0  0  0  0  0  0  0  0  0  0  0  0
   -1.9784    2.0152    5.6835 H   0  0  0  0  0  0  0  0  0  0  0  0
   -0.2025    3.7712    5.8095 H   0  0  0  0  0  0  0  0  0  0  0  0
   -0.7915    4.2075    7.4668 H   0  0  0  0  0  0  0  0  0  0  0  0
   -0.2759    1.8855    8.2369 H   0  0  0  0  0  0  0  0  0  0  0  0
    1.1686    2.6598    7.5269 H   0  0  0  0  0  0  0  0  0  0  0  0
   -0.6896    0.5798    6.1424 H   0  0  0  0  0  0  0  0  0  0  0  0
    0.9831    0.3373    6.7225 H   0  0  0  0  0  0  0  0  0  0  0  0
    1.8743    2.0021    5.1885 H   0  0  0  0  0  0  0  0  0  0  0  0
    0.1782    2.3132    4.5430 H   0  0  0  0  0  0  0  0  0  0  0  0
    1.5509    0.8894    3.1192 H   0  0  0  0  0  0  0  0  0  0  0  0
    0.0579    0.0082    3.7104 H   0  0  0  0  0  0  0  0  0  0  0  0
    2.9091   -0.3256    4.7970 H   0  0  0  0  0  0  0  0  0  0  0  0
    1.4445   -1.1109    5.4373 H   0  0  0  0  0  0  0  0  0  0  0  0
    1.1479   -2.3499    3.3074 H   0  0  0  0  0  0  0  0  0  0  0  0
    2.7483   -2.5696    4.0483 H   0  0  0  0  0  0  0  0  0  0  0  0
    3.7372   -0.9967    2.4790 H   0  0  0  0  0  0  0  0  0  0  0  0
    2.1812   -0.6529    1.6997 H   0  0  0  0  0  0  0  0  0  0  0  0
    1.9074   -2.9874    1.0559 H   0  0  0  0  0  0  0  0  0  0  0  0
    3.3313   -2.1898    0.3456 H   0  0  0  0  0  0  0  0  0  0  0  0
    4.7838   -3.2419    2.1106 H   0  0  0  0  0  0  0  0  0  0  0  0
    3.2940   -4.0613    2.7837 H   0  0  0  0  0  0  0  0  0  0  0  0
    4.4084   -4.3211   -0.0503 H   0  0  0  0  0  0  0  0  0  0  0  0
    4.6586   -5.5325    1.2688 H   0  0  0  0  0  0  0  0  0  0  0  0
    1.9541   -4.6681   -0.0164 H   0  0  0  0  0  0  0  0  0  0  0  0
    2.1113   -5.8076    1.3559 H   0  0  0  0  0  0  0  0  0  0  0  0
    2.9560   -7.4773    0.0871 H   0  0  0  0  0  0  0  0  0  0  0  0
    3.8016   -6.3544   -1.0669 H   0  0  0  0  0  0  0  0  0  0  0  0
    1.9690   -6.6169   -1.1356 H   0  0  0  0  0  0  0  0  0  0  0  0
   -2.1579    5.0926   -1.9911 H   0  0  0  0  0  0  0  0  0  0  0  0
   -0.5720    4.7296   -3.8562 H   0  0  0  0  0  0  0  0  0  0  0  0
   -0.7600    3.2325   -2.9406 H   0  0  0  0  0  0  0  0  0  0  0  0
    1.4482    5.3802   -2.6453 H   0  0  0  0  0  0  0  0  0  0  0  0
    1.3428    3.8267   -1.7058 H   0  0  0  0  0  0  0  0  0  0  0  0
    2.9651    3.8038   -3.5793 H   0  0  0  0  0  0  0  0  0  0  0  0
    1.6543    4.1691   -4.7361 H   0  0  0  0  0  0  0  0  0  0  0  0
    2.1904    1.7592   -4.7847 H   0  0  0  0  0  0  0  0  0  0  0  0
    0.5470    2.0813   -4.1595 H   0  0  0  0  0  0  0  0  0  0  0  0
    3.0677    1.5119   -2.5711 H   0  0  0  0  0  0  0  0  0  0  0  0
    1.5169    1.8266   -1.7707 H   0  0  0  0  0  0  0  0  0  0  0  0
    2.1232   -0.4544   -1.7430 H   0  0  0  0  0  0  0  0  0  0  0  0
    2.5397   -0.4960   -3.4358 H   0  0  0  0  0  0  0  0  0  0  0  0
    0.5078   -1.8228   -2.6653 H   0  0  0  0  0  0  0  0  0  0  0  0
   -0.1850   -0.3736   -1.9921 H   0  0  0  0  0  0  0  0  0  0  0  0
   -1.4596   -1.1849   -3.6598 H   0  0  0  0  0  0  0  0  0  0  0  0
   -1.0214    0.4304   -4.1327 H   0  0  0  0  0  0  0  0  0  0  0  0
   -1.1635   -0.8161   -6.0072 H   0  0  0  0  0  0  0  0  0  0  0  0
   -0.1763   -2.1639   -5.4959 H   0  0  0  0  0  0  0  0  0  0  0  0
    1.8762   -0.4074   -5.6531 H   0  0  0  0  0  0  0  0  0  0  0  0
    0.6244    0.7032   -6.3043 H   0  0  0  0  0  0  0  0  0  0  0  0
    0.0448   -0.7065   -8.0566 H   0  0  0  0  0  0  0  0  0  0  0  0
    1.0325   -2.0232   -7.4132 H   0  0  0  0  0  0  0  0  0  0  0  0
    1.7940    0.8272   -8.4551 H   0  0  0  0  0  0  0  0  0  0  0  0
    3.0496   -0.1515   -7.7071 H   0  0  0  0  0  0  0  0  0  0  0  0
    1.3370   -0.8333  -10.2142 H   0  0  0  0  0  0  0  0  0  0  0  0
    2.8988   -0.0440  -10.2804 H   0  0  0  0  0  0  0  0  0  0  0  0
    3.1191   -2.3573  -10.8312 H   0  0  0  0  0  0  0  0  0  0  0  0
    4.0979   -2.0453   -9.4125 H   0  0  0  0  0  0  0  0  0  0  0  0
    1.4128   -3.5833   -9.2622 H   0  0  0  0  0  0  0  0  0  0  0  0
    2.6093   -3.2683   -7.9080 H   0  0  0  0  0  0  0  0  0  0  0  0
    3.1762   -4.6246  -10.5518 H   0  0  0  0  0  0  0  0  0  0  0  0
    4.3617   -4.3365   -9.2301 H   0  0  0  0  0  0  0  0  0  0  0  0
    1.6725   -5.5881   -8.5186 H   0  0  0  0  0  0  0  0  0  0  0  0
    3.3231   -5.8806   -7.8012 H   0  0  0  0  0  0  0  0  0  0  0  0
    2.8264   -6.6482   -9.4035 H   0  0  0  0  0  0  0  0  0  0  0  0
   -4.4461    7.5938    1.9467 H   0  0  0  0  0  0  0  0  0  0  0  0
    0.2963    6.2401   -1.2006 H   0  0  0  0  0  0  0  0  0  0  0  0
   -0.3279    0.2886    0.7470 H   0  0  0  0  0  0  0  0  0  0  0  0
   -3.9055    0.7845   -0.1269 H   0  0  0  0  0  0  0  0  0  0  0  0
   -2.6199    1.6982    2.6544 H   0  0  0  0  0  0  0  0  0  0  0  0
  1  2  1  0
  1 52  1  0
  2  3  1  0
  2 46  1  0
  3 47  1  0
  4  5  1  0
  4 53  1  0
 45  5  1  6
  6 45  1  0
  7 45  1  0
  8 45  1  0
  9 10  1  0
  9 47  1  0
  9 48  1  0
 10 11  1  0
 11 12  1  0
 12 13  1  0
 13 14  1  0
 14 15  1  0
 15 16  1  0
 16 17  1  0
 17 18  1  0
 18 19  1  0
 19 20  1  0
 20 21  1  0
 21 22  1  0
 22 23  1  0
 23 24  1  0
 24 25  1  0
 25 26  1  0
 27 28  1  0
 27 46  1  0
 27 49  1  0
 28 29  1  0
 29 30  1  0
 30 31  1  0
 31 32  1  0
 32 33  1  0
 33 34  1  0
 34 35  1  0
 35 36  1  0
 36 37  1  0
 37 38  1  0
 38 39  1  0
 39 40  1  0
 40 41  1  0
 41 42  1  0
 42 43  1  0
 43 44  1  0
 50 54  1  0
 51 54  1  0
 52 54  1  0
 53 54  1  0
  1 55  1  0
  1 56  1  0
  2 57  1  6
  3 58  1  0
  3 59  1  0
  4 60  1  0
  4 61  1  0
  5 62  1  0
  5 63  1  0
  6 64  1  0
  6 65  1  0
  6 66  1  0
  7 67  1  0
  7 68  1  0
  7 69  1  0
  8 70  1  0
  8 71  1  0
  8 72  1  0
  9 73  1  0
 10 74  1  0
 10 75  1  0
 11 76  1  0
 11 77  1  0
 12 78  1  0
 12 79  1  0
 13 80  1  0
 13 81  1  0
 14 82  1  0
 14 83  1  0
 15 84  1  0
 15 85  1  0
 16 86  1  0
 16 87  1  0
 17 88  1  0
 17 89  1  0
 18 90  1  0
 18 91  1  0
 19 92  1  0
 19 93  1  0
 20 94  1  0
 20 95  1  0
 21 96  1  0
 21 97  1  0
 22 98  1  0
 22 99  1  0
 23100  1  0
 23101  1  0
 24102  1  0
 24103  1  0
 25104  1  0
 25105  1  0
 26106  1  0
 26107  1  0
 26108  1  0
 27109  1  6
 28110  1  0
 28111  1  0
 29112  1  0
 29113  1  0
 30114  1  0
 30115  1  0
 31116  1  0
 31117  1  0
 32118  1  0
 32119  1  0
 33120  1  0
 33121  1  0
 34122  1  0
 34123  1  0
 35124  1  0
 35125  1  0
 36126  1  0
 36127  1  0
 37128  1  0
 37129  1  0
 38130  1  0
 38131  1  0
 39132  1  0
 39133  1  0
 40134  1  0
 40135  1  0
 41136  1  0
 41137  1  0
 42138  1  0
 42139  1  0
 43140  1  0
 43141  1  0
 44142  1  0
 44143  1  0
 44144  1  0
 48145  1  0
 49146  1  0
 50147  1  0
 51148  1  0
 54149  1  0
M  CHG  1  45   1
M  END
$$$$
PHOSPHATIDYLCHOLINE TRANSFER PROTEIN
     RDKit          3D

149148  0  0  0  0  0  0  0  0999 V2000
   -4.0763   -1.3986    3.4429 C   0  0  0  0  0  0  0  0  0  0  0  0
   -3.5619   -0.7097    2.0977 C   0  0  1  0  0  0  0  0  0  0  0  0
   -4.4966   -1.1759    1.0615 C   0  0  0  0  0  0  0  0  0  0  0  0
   -2.7503   -5.7061    3.4202 C   0  0  0  0  0  0  0  0  0  0  0  0
   -2.5475   -6.8233    2.4502 C   0  0  0  0  0  0  0  0  0  0  0  0
   -2.4585   -8.7224    3.8744 C   0  0  0  0  0  0  0  0  0  0  0  0
   -3.2104   -8.9698    1.6977 C   0  0  0  0  0  0  0  0  0  0  0  0
   -4.5812   -7.8356    3.1919 C   0  0  0  0  0  0  0  0  0  0  0  0
   -3.4849   -0.5431   -0.9937 C   0  0  0  0  0  0  0  0  0  0  0  0
   -3.6445    0.7088   -1.7781 C   0  0  0  0  0  0  0  0  0  0  0  0
   -2.6151    1.0914   -2.7589 C   0  0  0  0  0  0  0  0  0  0  0  0
   -1.2475    1.3521   -2.1587 C   0  0  0  0  0  0  0  0  0  0  0  0
   -0.2804    1.8017   -3.1621 C   0  0  0  0  0  0  0  0  0  0  0  0
    0.1204    1.0136   -4.3219 C   0  0  0  0  0  0  0  0  0  0  0  0
    0.7876   -0.2802   -4.1972 C   0  0  0  0  0  0  0  0  0  0  0  0
    0.0974   -1.4382   -3.5734 C   0  0  0  0  0  0  0  0  0  0  0  0
    1.0127   -2.6513   -3.5098 C   0  0  0  0  0  0  0  0  0  0  0  0
    1.5321   -3.0821   -4.8741 C   0  0  0  0  0  0  0  0  0  0  0  0
    0.5235   -3.5111   -5.8443 C   0  0  0  0  0  0  0  0  0  0  0  0
    1.0377   -3.8366   -7.1920 C   0  0  0  0  0  0  0  0  0  0  0  0
    2.1001   -4.8500   -7.2727 C   0  0  0  0  0  0  0  0  0  0  0  0
    3.4633   -4.5627   -6.8124 C   0  0  0  0  0  0  0  0  0  0  0  0
    4.3334   -5.8156   -6.9677 C   0  0  0  0  0  0  0  0  0  0  0  0
    3.8861   -6.9803   -6.1625 C   0  0  0  0  0  0  0  0  0  0  0  0
    4.8751   -8.1114   -6.4230 C   0  0  0  0  0  0  0  0  0  0  0  0
    6.2772   -7.7092   -6.0243 C   0  0  0  0  0  0  0  0  0  0  0  0
   -2.2421    0.9796    2.8080 C   0  0  1  0  0  0  0  0  0  0  0  0
   -2.1498    2.0480    3.8460 C   0  0  0  0  0  0  0  0  0  0  0  0
   -0.7097    2.1831    4.2276 C   0  0  0  0  0  0  0  0  0  0  0  0
   -0.4735    3.3560    5.1558 C   0  0  0  0  0  0  0  0  0  0  0  0
   -0.6862    4.5884    4.3496 C   0  0  0  0  0  0  0  0  0  0  0  0
   -0.4458    5.9159    5.0740 C   0  0  0  0  0  0  0  0  0  0  0  0
   -0.5768    6.9267    3.9063 C   0  0  0  0  0  0  0  0  0  0  0  0
   -0.3789    8.3058    4.3729 C   0  0  0  0  0  0  0  0  0  0  0  0
   -0.3467    9.2593    3.2115 C   0  0  0  0  0  0  0  0  0  0  0  0
    0.9277    9.2515    2.4736 C   0  0  0  0  0  0  0  0  0  0  0  0
    1.5176    7.9879    2.0146 C   0  0  0  0  0  0  0  0  0  0  0  0
    2.8106    8.3637    1.2148 C   0  0  0  0  0  0  0  0  0  0  0  0
    3.5240    7.0826    0.9529 C   0  0  0  0  0  0  0  0  0  0  0  0
    2.6825    6.0788    0.2462 C   0  0  0  0  0  0  0  0  0  0  0  0
    3.5678    4.8393    0.0961 C   0  0  0  0  0  0  0  0  0  0  0  0
    2.8758    3.6904   -0.5724 C   0  0  0  0  0  0  0  0  0  0  0  0
    3.9089    2.5524   -0.6061 C   0  0  0  0  0  0  0  0  0  0  0  0
    3.3164    1.3420   -1.2517 C   0  0  0  0  0  0  0  0  0  0  0  0
   -3.1967   -8.0338    2.8359 N   0  0  2  0  0  0  0  0  0  0  0  0
   -3.5575    0.6516    2.3996 O   0  0  0  0  0  0  0  0  0  0  0  0
   -4.5565   -0.6627   -0.1516 O   0  0  0  0  0  0  0  0  0  0  0  0
   -3.6244   -1.6626   -1.9299 O   0  0  0  0  0  0  0  0  0  0  0  0
   -1.6387    1.6168    1.6470 O   0  0  0  0  0  0  0  0  0  0  0  0
   -5.7298   -3.9446    5.2067 O   0  0  0  0  0  0  0  0  0  0  0  0
   -3.3052   -3.3759    5.6550 O   0  0  0  0  0  0  0  0  0  0  0  0
   -4.0278   -2.7350    3.1139 O   0  0  0  0  0  0  0  0  0  0  0  0
   -4.0589   -5.3338    3.6163 O   0  0  0  0  0  0  0  0  0  0  0  0
   -4.2598   -3.8292    4.3396 P   0  0  0  0  0  0  0  0  0  0  0  0
   -5.0585   -0.9856    3.6682 H   0  0  0  0  0  0  0  0  0  0  0  0
   -3.3638   -1.1457    4.2274 H   0  0  0  0  0  0  0  0  0  0  0  0
   -2.5505   -1.0954    2.0791 H   0  0  0  0  0  0  0  0  0  0  0  0
   -4.3238   -2.3079    0.9756 H   0  0  0  0  0  0  0  0  0  0  0  0
   -5.5440   -1.0699    1.5260 H   0  0  0  0  0  0  0  0  0  0  0  0
   -2.2393   -5.8942    4.3951 H   0  0  0  0  0  0  0  0  0  0  0  0
   -2.1897   -4.8194    3.0047 H   0  0  0  0  0  0  0  0  0  0  0  0
   -1.4592   -7.0303    2.3340 H   0  0  0  0  0  0  0  0  0  0  0  0
   -2.9726   -6.5003    1.4591 H   0  0  0  0  0  0  0  0  0  0  0  0
   -1.3855   -8.6820    3.5948 H   0  0  0  0  0  0  0  0  0  0  0  0
   -2.7632   -9.8085    3.8516 H   0  0  0  0  0  0  0  0  0  0  0  0
   -2.6342   -8.3093    4.8722 H   0  0  0  0  0  0  0  0  0  0  0  0
   -2.1852   -9.0671    1.2922 H   0  0  0  0  0  0  0  0  0  0  0  0
   -3.4955   -9.9552    2.0997 H   0  0  0  0  0  0  0  0  0  0  0  0
   -3.9457   -8.6415    0.9181 H   0  0  0  0  0  0  0  0  0  0  0  0
   -4.6834   -7.5027    4.2477 H   0  0  0  0  0  0  0  0  0  0  0  0
   -5.1684   -8.7991    3.0767 H   0  0  0  0  0  0  0  0  0  0  0  0
   -5.0908   -7.1293    2.5087 H   0  0  0  0  0  0  0  0  0  0  0  0
   -2.5527   -0.7838   -0.5194 H   0  0  0  0  0  0  0  0  0  0  0  0
   -4.6541    0.6287   -2.2889 H   0  0  0  0  0  0  0  0  0  0  0  0
   -3.8031    1.5905   -1.0921 H   0  0  0  0  0  0  0  0  0  0  0  0
   -2.5493    0.4159   -3.6411 H   0  0  0  0  0  0  0  0  0  0  0  0
   -2.9387    2.0743   -3.2076 H   0  0  0  0  0  0  0  0  0  0  0  0
   -1.4554    2.2691   -1.4880 H   0  0  0  0  0  0  0  0  0  0  0  0
   -0.9414    0.6086   -1.4152 H   0  0  0  0  0  0  0  0  0  0  0  0
    0.6398    2.2307   -2.6301 H   0  0  0  0  0  0  0  0  0  0  0  0
   -0.7126    2.7793   -3.5878 H   0  0  0  0  0  0  0  0  0  0  0  0
   -0.7360    0.9206   -5.0697 H   0  0  0  0  0  0  0  0  0  0  0  0
    0.8329    1.6773   -4.9290 H   0  0  0  0  0  0  0  0  0  0  0  0
    1.0267   -0.6222   -5.2608 H   0  0  0  0  0  0  0  0  0  0  0  0
    1.8340   -0.1522   -3.7818 H   0  0  0  0  0  0  0  0  0  0  0  0
   -0.2019   -1.2862   -2.5174 H   0  0  0  0  0  0  0  0  0  0  0  0
   -0.7751   -1.7266   -4.1869 H   0  0  0  0  0  0  0  0  0  0  0  0
    0.3826   -3.4831   -3.1469 H   0  0  0  0  0  0  0  0  0  0  0  0
    1.8609   -2.5386   -2.8394 H   0  0  0  0  0  0  0  0  0  0  0  0
    2.0835   -4.0401   -4.5752 H   0  0  0  0  0  0  0  0  0  0  0  0
    2.2301   -2.3526   -5.2845 H   0  0  0  0  0  0  0  0  0  0  0  0
   -0.3739   -2.8194   -5.8954 H   0  0  0  0  0  0  0  0  0  0  0  0
    0.0254   -4.4692   -5.4577 H   0  0  0  0  0  0  0  0  0  0  0  0
    1.4344   -2.8497   -7.6365 H   0  0  0  0  0  0  0  0  0  0  0  0
    0.1531   -4.1253   -7.8503 H   0  0  0  0  0  0  0  0  0  0  0  0
    1.7053   -5.8429   -6.8642 H   0  0  0  0  0  0  0  0  0  0  0  0
    2.1905   -5.1133   -8.3878 H   0  0  0  0  0  0  0  0  0  0  0  0
    3.6909   -4.0204   -5.9219 H   0  0  0  0  0  0  0  0  0  0  0  0
    3.9250   -3.8732   -7.6402 H   0  0  0  0  0  0  0  0  0  0  0  0
    4.2452   -6.0933   -8.0549 H   0  0  0  0  0  0  0  0  0  0  0  0
    5.3762   -5.5056   -6.8026 H   0  0  0  0  0  0  0  0  0  0  0  0
    3.8417   -6.7492   -5.0805 H   0  0  0  0  0  0  0  0  0  0  0  0
    2.9186   -7.3578   -6.5126 H   0  0  0  0  0  0  0  0  0  0  0  0
    4.8188   -8.4551   -7.4709 H   0  0  0  0  0  0  0  0  0  0  0  0
    4.6184   -8.9990   -5.7802 H   0  0  0  0  0  0  0  0  0  0  0  0
    6.7990   -7.2508   -6.9117 H   0  0  0  0  0  0  0  0  0  0  0  0
    6.2452   -6.9825   -5.1981 H   0  0  0  0  0  0  0  0  0  0  0  0
    6.9111   -8.5583   -5.7069 H   0  0  0  0  0  0  0  0  0  0  0  0
   -1.6324    0.1176    2.9794 H   0  0  0  0  0  0  0  0  0  0  0  0
   -2.5366    3.0207    3.4499 H   0  0  0  0  0  0  0  0  0  0  0  0
   -2.7405    1.7981    4.7637 H   0  0  0  0  0  0  0  0  0  0  0  0
   -0.1119    2.3158    3.2817 H   0  0  0  0  0  0  0  0  0  0  0  0
   -0.3110    1.2770    4.7228 H   0  0  0  0  0  0  0  0  0  0  0  0
   -1.2193    3.3495    5.9854 H   0  0  0  0  0  0  0  0  0  0  0  0
    0.5766    3.3536    5.5516 H   0  0  0  0  0  0  0  0  0  0  0  0
   -0.0629    4.6208    3.4364 H   0  0  0  0  0  0  0  0  0  0  0  0
   -1.7777    4.6451    4.0531 H   0  0  0  0  0  0  0  0  0  0  0  0
   -1.3086    6.0887    5.7330 H   0  0  0  0  0  0  0  0  0  0  0  0
    0.5395    5.9747    5.5378 H   0  0  0  0  0  0  0  0  0  0  0  0
   -0.0571    6.5105    3.0741 H   0  0  0  0  0  0  0  0  0  0  0  0
   -1.7276    6.8026    3.6565 H   0  0  0  0  0  0  0  0  0  0  0  0
    0.5750    8.3596    4.9604 H   0  0  0  0  0  0  0  0  0  0  0  0
   -1.2158    8.6501    5.0438 H   0  0  0  0  0  0  0  0  0  0  0  0
   -0.6115   10.2899    3.5939 H   0  0  0  0  0  0  0  0  0  0  0  0
   -1.1760    8.9332    2.5154 H   0  0  0  0  0  0  0  0  0  0  0  0
    1.7531    9.7828    3.0713 H   0  0  0  0  0  0  0  0  0  0  0  0
    0.7693    9.8999    1.5508 H   0  0  0  0  0  0  0  0  0  0  0  0
    1.9166    7.3366    2.8049 H   0  0  0  0  0  0  0  0  0  0  0  0
    0.8408    7.4737    1.2940 H   0  0  0  0  0  0  0  0  0  0  0  0
    3.4003    9.0645    1.8099 H   0  0  0  0  0  0  0  0  0  0  0  0
    2.5172    8.8606    0.2826 H   0  0  0  0  0  0  0  0  0  0  0  0
    4.4689    7.2823    0.3664 H   0  0  0  0  0  0  0  0  0  0  0  0
    3.9257    6.6405    1.9177 H   0  0  0  0  0  0  0  0  0  0  0  0
    1.8238    5.8042    0.9049 H   0  0  0  0  0  0  0  0  0  0  0  0
    2.3904    6.4516   -0.7460 H   0  0  0  0  0  0  0  0  0  0  0  0
    3.9713    4.5687    1.0998 H   0  0  0  0  0  0  0  0  0  0  0  0
    4.4524    5.1862   -0.5069 H   0  0  0  0  0  0  0  0  0  0  0  0
    2.6730    3.9536   -1.6295 H   0  0  0  0  0  0  0  0  0  0  0  0
    1.9926    3.4014    0.0091 H   0  0  0  0  0  0  0  0  0  0  0  0
    4.2172    2.3458    0.4321 H   0  0  0  0  0  0  0  0  0  0  0  0
    4.7654    2.9293   -1.2123 H   0  0  0  0  0  0  0  0  0  0  0  0
    4.1297    0.6084   -1.4851 H   0  0  0  0  0  0  0  0  0  0  0  0
    2.5348    0.8917   -0.6052 H   0  0  0  0  0  0  0  0  0  0  0  0
    2.8592    1.6058   -2.2074 H   0  0  0  0  0  0  0  0  0  0  0  0
   -4.5681   -1.6178   -2.2307 H   0  0  0  0  0  0  0  0  0  0  0  0
   -0.8268    1.1447    1.4187 H   0  0  0  0  0  0  0  0  0  0  0  0
   -6.0762   -3.0029    5.1940 H   0  0  0  0  0  0  0  0  0  0  0  0
   -3.4440   -4.0760    6.3621 H   0  0  0  0  0  0  0  0  0  0  0  0
   -2.9576   -3.4253    4.0992 H   0  0  0  0  0  0  0  0  0  0  0  0
  1  2  1  0
  1 52  1  0
  2  3  1  0
  2 46  1  0
  3 47  1  0
  4  5  1  0
  4 53  1  0
 45  5  1  6
  6 45  1  0
  7 45  1  0
  8 45  1  0
  9 10  1  0
  9 47  1  0
  9 48  1  0
 10 11  1  0
 11 12  1  0
 12 13  1  0
 13 14  1  0
 14 15  1  0
 15 16  1  0
 16 17  1  0
 17 18  1  0
 18 19  1  0
 19 20  1  0
 20 21  1  0
 21 22  1  0
 22 23  1  0
 23 24  1  0
 24 25  1  0
 25 26  1  0
 27 28  1  0
 27 46  1  0
 27 49  1  0
 28 29  1  0
 29 30  1  0
 30 31  1  0
 31 32  1  0
 32 33  1  0
 33 34  1  0
 34 35  1  0
 35 36  1  0
 36 37  1  0
 37 38  1  0
 38 39  1  0
 39 40  1  0
 40 41  1  0
 41 42  1  0
 42 43  1  0
 43 44  1  0
 50 54  1  0
 51 54  1  0
 52 54  1  0
 53 54  1  0
  1 55  1  0
  1 56  1  0
  2 57  1  6
  3 58  1  0
  3 59  1  0
  4 60  1  0
  4 61  1  0
  5 62  1  0
  5 63  1  0
  6 64  1  0
  6 65  1  0
  6 66  1  0
  7 67  1  0
  7 68  1  0
  7 69  1  0
  8 70  1  0
  8 71  1  0
  8 72  1  0
  9 73  1  0
 10 74  1  0
 10 75  1  0
 11 76  1  0
 11 77  1  0
 12 78  1  0
 12 79  1  0
 13 80  1  0
 13 81  1  0
 14 82  1  0
 14 83  1  0
 15 84  1  0
 15 85  1  0
 16 86  1  0
 16 87  1  0
 17 88  1  0
 17 89  1  0
 18 90  1  0
 18 91  1  0
 19 92  1  0
 19 93  1  0
 20 94  1  0
 20 95  1  0
 21 96  1  0
 21 97  1  0
 22 98  1  0
 22 99  1  0
 23100  1  0
 23101  1  0
 24102  1  0
 24103  1  0
 25104  1  0
 25105  1  0
 26106  1  0
 26107  1  0
 26108  1  0
 27109  1  1
 28110  1  0
 28111  1  0
 29112  1  0
 29113  1  0
 30114  1  0
 30115  1  0
 31116  1  0
 31117  1  0
 32118  1  0
 32119  1  0
 33120  1  0
 33121  1  0
 34122  1  0
 34123  1  0
 35124  1  0
 35125  1  0
 36126  1  0
 36127  1  0
 37128  1  0
 37129  1  0
 38130  1  0
 38131  1  0
 39132  1  0
 39133  1  0
 40134  1  0
 40135  1  0
 41136  1  0
 41137  1  0
 42138  1  0
 42139  1  0
 43140  1  0
 43141  1  0
 44142  1  0
 44143  1  0
 44144  1  0
 48145  1  0
 49146  1  0
 50147  1  0
 51148  1  0
 54149  1  0
M  CHG  1  45   1
M  END
$$$$
PHOSPHATIDYLCHOLINE TRANSFER PROTEIN
     RDKit          3D

149148  0  0  0  0  0  0  0  0999 V2000
    4.4170    3.1028   -1.9062 C   0  0  0  0  0  0  0  0  0  0  0  0
    4.5490    1.7806   -2.5917 C   0  0  1  0  0  0  0  0  0  0  0  0
    5.4289    0.9110   -1.7340 C   0  0  0  0  0  0  0  0  0  0  0  0
    3.5181    5.8065    2.1612 C   0  0  0  0  0  0  0  0  0  0  0  0
    2.3301    6.2518    2.9727 C   0  0  0  0  0  0  0  0  0  0  0  0
    1.1995    7.6775    1.4892 C   0  0  0  0  0  0  0  0  0  0  0  0
    0.0308    6.5068    3.1617 C   0  0  0  0  0  0  0  0  0  0  0  0
    0.8263    5.3257    1.3100 C   0  0  0  0  0  0  0  0  0  0  0  0
    5.6381   -0.1339    0.3456 C   0  0  0  0  0  0  0  0  0  0  0  0
    4.8173   -1.1427    1.0557 C   0  0  0  0  0  0  0  0  0  0  0  0
    4.0445   -2.0921    0.1949 C   0  0  0  0  0  0  0  0  0  0  0  0
    3.2439   -3.0033    1.1341 C   0  0  0  0  0  0  0  0  0  0  0  0
    2.3960   -3.9919    0.3952 C   0  0  0  0  0  0  0  0  0  0  0  0
    1.5870   -4.8555    1.3340 C   0  0  0  0  0  0  0  0  0  0  0  0
    0.6991   -5.8466    0.6098 C   0  0  0  0  0  0  0  0  0  0  0  0
   -0.0779   -6.6362    1.6445 C   0  0  0  0  0  0  0  0  0  0  0  0
   -1.0243   -7.6418    1.0279 C   0  0  0  0  0  0  0  0  0  0  0  0
   -2.0300   -6.9638    0.1249 C   0  0  0  0  0  0  0  0  0  0  0  0
   -3.0301   -7.9104   -0.4892 C   0  0  0  0  0  0  0  0  0  0  0  0
   -3.8424   -8.6345    0.5716 C   0  0  0  0  0  0  0  0  0  0  0  0
   -4.5472   -7.5583    1.3865 C   0  0  0  0  0  0  0  0  0  0  0  0
   -5.4177   -8.1130    2.4791 C   0  0  0  0  0  0  0  0  0  0  0  0
   -6.0598   -6.9321    3.2114 C   0  0  0  0  0  0  0  0  0  0  0  0
   -5.0595   -6.0157    3.8368 C   0  0  0  0  0  0  0  0  0  0  0  0
   -5.7554   -4.8591    4.5536 C   0  0  0  0  0  0  0  0  0  0  0  0
   -4.7190   -3.9516    5.1725 C   0  0  0  0  0  0  0  0  0  0  0  0
    3.0901    1.0419   -4.1719 C   0  0  1  0  0  0  0  0  0  0  0  0
    1.7533    0.8352   -4.6846 C   0  0  0  0  0  0  0  0  0  0  0  0
    0.6238    1.7094   -4.3274 C   0  0  0  0  0  0  0  0  0  0  0  0
    0.7470    3.1849   -4.5235 C   0  0  0  0  0  0  0  0  0  0  0  0
   -0.6105    3.7816   -4.2368 C   0  0  0  0  0  0  0  0  0  0  0  0
   -1.1534    3.3835   -2.8912 C   0  0  0  0  0  0  0  0  0  0  0  0
   -2.5372    4.0274   -2.6746 C   0  0  0  0  0  0  0  0  0  0  0  0
   -3.2041    3.5882   -1.4374 C   0  0  0  0  0  0  0  0  0  0  0  0
   -2.5284    3.8756   -0.1200 C   0  0  0  0  0  0  0  0  0  0  0  0
   -3.4409    3.2450    0.9220 C   0  0  0  0  0  0  0  0  0  0  0  0
   -3.0807    3.3578    2.3134 C   0  0  0  0  0  0  0  0  0  0  0  0
   -1.8761    2.9119    2.9749 C   0  0  0  0  0  0  0  0  0  0  0  0
   -1.3473    1.5666    3.1049 C   0  0  0  0  0  0  0  0  0  0  0  0
   -0.8123    0.7207    2.0441 C   0  0  0  0  0  0  0  0  0  0  0  0
   -1.6900    0.3328    0.9321 C   0  0  0  0  0  0  0  0  0  0  0  0
   -0.9244   -0.6697   -0.0157 C   0  0  0  0  0  0  0  0  0  0  0  0
   -1.8485   -1.0366   -1.1326 C   0  0  0  0  0  0  0  0  0  0  0  0
   -1.2353   -1.9954   -2.1212 C   0  0  0  0  0  0  0  0  0  0  0  0
    1.1353    6.3952    2.2017 N   0  0  2  0  0  0  0  0  0  0  0  0
    3.3400    1.1010   -2.8092 O   0  0  0  0  0  0  0  0  0  0  0  0
    4.9036    0.6959   -0.4847 O   0  0  0  0  0  0  0  0  0  0  0  0
    6.2239    0.6686    1.3862 O   0  0  0  0  0  0  0  0  0  0  0  0
    3.7576   -0.2561   -4.5714 O   0  0  0  0  0  0  0  0  0  0  0  0
    5.6769    4.5597    1.5778 O   0  0  0  0  0  0  0  0  0  0  0  0
    4.2294    5.3132   -0.8577 O   0  0  0  0  0  0  0  0  0  0  0  0
    3.8439    3.1169   -0.6751 O   0  0  0  0  0  0  0  0  0  0  0  0
    3.3342    4.5834    1.5603 O   0  0  0  0  0  0  0  0  0  0  0  0
    4.4793    4.2511    0.3999 P   0  0  0  0  0  0  0  0  0  0  0  0
    3.8897    3.8498   -2.5782 H   0  0  0  0  0  0  0  0  0  0  0  0
    5.4365    3.5840   -1.7854 H   0  0  0  0  0  0  0  0  0  0  0  0
    4.9655    1.9161   -3.6245 H   0  0  0  0  0  0  0  0  0  0  0  0
    5.6234   -0.0906   -2.2032 H   0  0  0  0  0  0  0  0  0  0  0  0
    6.4505    1.3621   -1.6440 H   0  0  0  0  0  0  0  0  0  0  0  0
    3.6922    6.5996    1.3983 H   0  0  0  0  0  0  0  0  0  0  0  0
    4.3811    5.7573    2.8831 H   0  0  0  0  0  0  0  0  0  0  0  0
    2.5406    7.2359    3.4437 H   0  0  0  0  0  0  0  0  0  0  0  0
    2.1321    5.5429    3.8284 H   0  0  0  0  0  0  0  0  0  0  0  0
    1.7353    7.4841    0.5254 H   0  0  0  0  0  0  0  0  0  0  0  0
    0.2050    8.0502    1.2309 H   0  0  0  0  0  0  0  0  0  0  0  0
    1.8367    8.3876    2.0442 H   0  0  0  0  0  0  0  0  0  0  0  0
   -0.9348    6.5972    2.6384 H   0  0  0  0  0  0  0  0  0  0  0  0
    0.1565    7.4213    3.7795 H   0  0  0  0  0  0  0  0  0  0  0  0
   -0.0157    5.6455    3.8328 H   0  0  0  0  0  0  0  0  0  0  0  0
    1.2908    5.3614    0.3239 H   0  0  0  0  0  0  0  0  0  0  0  0
    1.0811    4.3375    1.7694 H   0  0  0  0  0  0  0  0  0  0  0  0
   -0.2843    5.3432    1.1108 H   0  0  0  0  0  0  0  0  0  0  0  0
    6.5080   -0.5722   -0.1435 H   0  0  0  0  0  0  0  0  0  0  0  0
    4.1486   -0.6551    1.8097 H   0  0  0  0  0  0  0  0  0  0  0  0
    5.5029   -1.7755    1.6871 H   0  0  0  0  0  0  0  0  0  0  0  0
    3.3906   -1.5050   -0.4644 H   0  0  0  0  0  0  0  0  0  0  0  0
    4.6922   -2.7541   -0.3879 H   0  0  0  0  0  0  0  0  0  0  0  0
    4.0085   -3.5062    1.7786 H   0  0  0  0  0  0  0  0  0  0  0  0
    2.6015   -2.4103    1.8121 H   0  0  0  0  0  0  0  0  0  0  0  0
    3.0558   -4.6570   -0.1736 H   0  0  0  0  0  0  0  0  0  0  0  0
    1.7415   -3.4426   -0.3055 H   0  0  0  0  0  0  0  0  0  0  0  0
    2.1935   -5.3783    2.0766 H   0  0  0  0  0  0  0  0  0  0  0  0
    0.8607   -4.1730    1.8705 H   0  0  0  0  0  0  0  0  0  0  0  0
    1.2564   -6.5091   -0.0563 H   0  0  0  0  0  0  0  0  0  0  0  0
   -0.0623   -5.2686    0.0152 H   0  0  0  0  0  0  0  0  0  0  0  0
    0.6042   -7.1858    2.3215 H   0  0  0  0  0  0  0  0  0  0  0  0
   -0.6947   -5.9723    2.2852 H   0  0  0  0  0  0  0  0  0  0  0  0
   -0.4033   -8.3552    0.4571 H   0  0  0  0  0  0  0  0  0  0  0  0
   -1.5589   -8.2073    1.8137 H   0  0  0  0  0  0  0  0  0  0  0  0
   -2.5033   -6.0892    0.5642 H   0  0  0  0  0  0  0  0  0  0  0  0
   -1.4139   -6.5753   -0.7415 H   0  0  0  0  0  0  0  0  0  0  0  0
   -3.7488   -7.2798   -1.0602 H   0  0  0  0  0  0  0  0  0  0  0  0
   -2.5679   -8.6186   -1.1929 H   0  0  0  0  0  0  0  0  0  0  0  0
   -3.2192   -9.2689    1.2223 H   0  0  0  0  0  0  0  0  0  0  0  0
   -4.6064   -9.2444    0.0734 H   0  0  0  0  0  0  0  0  0  0  0  0
   -3.7417   -6.9653    1.8761 H   0  0  0  0  0  0  0  0  0  0  0  0
   -5.1323   -6.8802    0.7581 H   0  0  0  0  0  0  0  0  0  0  0  0
   -4.8440   -8.6724    3.2402 H   0  0  0  0  0  0  0  0  0  0  0  0
   -6.2643   -8.7165    2.1034 H   0  0  0  0  0  0  0  0  0  0  0  0
   -6.7790   -7.2704    3.9820 H   0  0  0  0  0  0  0  0  0  0  0  0
   -6.6565   -6.3266    2.4641 H   0  0  0  0  0  0  0  0  0  0  0  0
   -4.4265   -5.5200    3.0498 H   0  0  0  0  0  0  0  0  0  0  0  0
   -4.3958   -6.5231    4.5393 H   0  0  0  0  0  0  0  0  0  0  0  0
   -6.3073   -4.2265    3.8038 H   0  0  0  0  0  0  0  0  0  0  0  0
   -6.4948   -5.1932    5.2937 H   0  0  0  0  0  0  0  0  0  0  0  0
   -4.9216   -3.8319    6.2710 H   0  0  0  0  0  0  0  0  0  0  0  0
   -4.6658   -2.9580    4.6937 H   0  0  0  0  0  0  0  0  0  0  0  0
   -3.6876   -4.3947    5.0833 H   0  0  0  0  0  0  0  0  0  0  0  0
    3.7447    1.6964   -4.7499 H   0  0  0  0  0  0  0  0  0  0  0  0
    1.4007   -0.2336   -4.4291 H   0  0  0  0  0  0  0  0  0  0  0  0
    1.8159    0.7771   -5.8276 H   0  0  0  0  0  0  0  0  0  0  0  0
   -0.2552    1.3968   -4.9708 H   0  0  0  0  0  0  0  0  0  0  0  0
    0.3368    1.5788   -3.2411 H   0  0  0  0  0  0  0  0  0  0  0  0
    1.4884    3.6582   -3.8525 H   0  0  0  0  0  0  0  0  0  0  0  0
    0.9760    3.3983   -5.5998 H   0  0  0  0  0  0  0  0  0  0  0  0
   -0.6020    4.8909   -4.3414 H   0  0  0  0  0  0  0  0  0  0  0  0
   -1.3530    3.3781   -4.9901 H   0  0  0  0  0  0  0  0  0  0  0  0
   -1.3925    2.2863   -2.8776 H   0  0  0  0  0  0  0  0  0  0  0  0
   -0.5359    3.7018   -2.0341 H   0  0  0  0  0  0  0  0  0  0  0  0
   -2.4378    5.1542   -2.6542 H   0  0  0  0  0  0  0  0  0  0  0  0
   -3.1960    3.8116   -3.5277 H   0  0  0  0  0  0  0  0  0  0  0  0
   -4.2758    3.9662   -1.3747 H   0  0  0  0  0  0  0  0  0  0  0  0
   -3.3812    2.4667   -1.5491 H   0  0  0  0  0  0  0  0  0  0  0  0
   -1.4932    3.5549   -0.0751 H   0  0  0  0  0  0  0  0  0  0  0  0
   -2.5374    4.9950   -0.0000 H   0  0  0  0  0  0  0  0  0  0  0  0
   -4.4104    3.8677    0.7899 H   0  0  0  0  0  0  0  0  0  0  0  0
   -3.8300    2.2410    0.5668 H   0  0  0  0  0  0  0  0  0  0  0  0
   -3.3646    4.4294    2.6469 H   0  0  0  0  0  0  0  0  0  0  0  0
   -3.9494    2.8030    2.8827 H   0  0  0  0  0  0  0  0  0  0  0  0
   -2.0153    3.2763    4.0900 H   0  0  0  0  0  0  0  0  0  0  0  0
   -0.9705    3.5834    2.7005 H   0  0  0  0  0  0  0  0  0  0  0  0
   -0.5813    1.5418    4.0036 H   0  0  0  0  0  0  0  0  0  0  0  0
   -2.1731    0.9208    3.6665 H   0  0  0  0  0  0  0  0  0  0  0  0
   -0.4409   -0.2588    2.4987 H   0  0  0  0  0  0  0  0  0  0  0  0
    0.1373    1.2410    1.6613 H   0  0  0  0  0  0  0  0  0  0  0  0
   -1.8746    1.1515    0.2035 H   0  0  0  0  0  0  0  0  0  0  0  0
   -2.5568   -0.2251    1.2730 H   0  0  0  0  0  0  0  0  0  0  0  0
   -0.6562   -1.4994    0.6388 H   0  0  0  0  0  0  0  0  0  0  0  0
   -0.0199   -0.1979   -0.4089 H   0  0  0  0  0  0  0  0  0  0  0  0
   -2.1795   -0.0836   -1.6163 H   0  0  0  0  0  0  0  0  0  0  0  0
   -2.7303   -1.5664   -0.6852 H   0  0  0  0  0  0  0  0  0  0  0  0
   -1.3270   -3.0160   -1.7078 H   0  0  0  0  0  0  0  0  0  0  0  0
   -1.7420   -1.9635   -3.1085 H   0  0  0  0  0  0  0  0  0  0  0  0
   -0.1837   -1.6644   -2.2743 H   0  0  0  0  0  0  0  0  0  0  0  0
    6.9089    0.0755    1.8276 H   0  0  0  0  0  0  0  0  0  0  0  0
    3.6373   -0.3109   -5.5439 H   0  0  0  0  0  0  0  0  0  0  0  0
    6.5390    4.4460    1.0853 H   0  0  0  0  0  0  0  0  0  0  0  0
    3.3744    5.7965   -0.7814 H   0  0  0  0  0  0  0  0  0  0  0  0
    3.5969    3.4623    1.1595 H   0  0  0  0  0  0  0  0  0  0  0  0
  1  2  1  0
  1 52  1  0
  2  3  1  0
  2 46  1  0
  3 47  1  0
  4  5  1  0
  4 53  1  0
 45  5  1  1
  6 45  1  0
  7 45  1  0
  8 45  1  0
  9 10  1  0
  9 47  1  0
  9 48  1  0
 10 11  1  0
 11 12  1  0
 12 13  1  0
 13 14  1  0
 14 15  1  0
 15 16  1  0
 16 17  1  0
 17 18  1  0
 18 19  1  0
 19 20  1  0
 20 21  1  0
 21 22  1  0
 22 23  1  0
 23 24  1  0
 24 25  1  0
 25 26  1  0
 27 28  1  0
 27 46  1  0
 27 49  1  0
 28 29  1  0
 29 30  1  0
 30 31  1  0
 31 32  1  0
 32 33  1  0
 33 34  1  0
 34 35  1  0
 35 36  1  0
 36 37  1  0
 37 38  1  0
 38 39  1  0
 39 40  1  0
 40 41  1  0
 41 42  1  0
 42 43  1  0
 43 44  1  0
 50 54  1  0
 51 54  1  0
 52 54  1  0
 53 54  1  0
  1 55  1  0
  1 56  1  0
  2 57  1  6
  3 58  1  0
  3 59  1  0
  4 60  1  0
  4 61  1  0
  5 62  1  0
  5 63  1  0
  6 64  1  0
  6 65  1  0
  6 66  1  0
  7 67  1  0
  7 68  1  0
  7 69  1  0
  8 70  1  0
  8 71  1  0
  8 72  1  0
  9 73  1  0
 10 74  1  0
 10 75  1  0
 11 76  1  0
 11 77  1  0
 12 78  1  0
 12 79  1  0
 13 80  1  0
 13 81  1  0
 14 82  1  0
 14 83  1  0
 15 84  1  0
 15 85  1  0
 16 86  1  0
 16 87  1  0
 17 88  1  0
 17 89  1  0
 18 90  1  0
 18 91  1  0
 19 92  1  0
 19 93  1  0
 20 94  1  0
 20 95  1  0
 21 96  1  0
 21 97  1  0
 22 98  1  0
 22 99  1  0
 23100  1  0
 23101  1  0
 24102  1  0
 24103  1  0
 25104  1  0
 25105  1  0
 26106  1  0
 26107  1  0
 26108  1  0
 27109  1  6
 28110  1  0
 28111  1  0
 29112  1  0
 29113  1  0
 30114  1  0
 30115  1  0
 31116  1  0
 31117  1  0
 32118  1  0
 32119  1  0
 33120  1  0
 33121  1  0
 34122  1  0
 34123  1  0
 35124  1  0
 35125  1  0
 36126  1  0
 36127  1  0
 37128  1  0
 37129  1  0
 38130  1  0
 38131  1  0
 39132  1  0
 39133  1  0
 40134  1  0
 40135  1  0
 41136  1  0
 41137  1  0
 42138  1  0
 42139  1  0
 43140  1  0
 43141  1  0
 44142  1  0
 44143  1  0
 44144  1  0
 48145  1  0
 49146  1  0
 50147  1  0
 51148  1  0
 54149  1  0
M  CHG  1  45   1
M  END
$$$$
PHOSPHATIDYLCHOLINE TRANSFER PROTEIN
     RDKit          3D

149148  0  0  0  0  0  0  0  0999 V2000
   -0.5635   -3.4579    0.1887 C   0  0  0  0  0  0  0  0  0  0  0  0
   -0.5975   -3.3953   -1.2849 C   0  0  1  0  0  0  0  0  0  0  0  0
   -0.1957   -4.7393   -1.9396 C   0  0  0  0  0  0  0  0  0  0  0  0
   -0.9901   -3.1453    3.9682 C   0  0  0  0  0  0  0  0  0  0  0  0
   -1.7588   -2.2730    4.8939 C   0  0  0  0  0  0  0  0  0  0  0  0
   -1.0661   -3.4599    6.8630 C   0  0  0  0  0  0  0  0  0  0  0  0
   -2.1742   -1.3963    7.0252 C   0  0  0  0  0  0  0  0  0  0  0  0
    0.0236   -1.4665    6.2820 C   0  0  0  0  0  0  0  0  0  0  0  0
   -1.0902   -6.7076   -2.8074 C   0  0  0  0  0  0  0  0  0  0  0  0
   -1.3282   -6.6063   -4.3277 C   0  0  0  0  0  0  0  0  0  0  0  0
   -0.3028   -5.6678   -5.0116 C   0  0  0  0  0  0  0  0  0  0  0  0
    1.0192   -6.2945   -4.9360 C   0  0  0  0  0  0  0  0  0  0  0  0
    2.2546   -5.6979   -5.4393 C   0  0  0  0  0  0  0  0  0  0  0  0
    2.8310   -4.5159   -4.8195 C   0  0  0  0  0  0  0  0  0  0  0  0
    2.1287   -3.2294   -4.9082 C   0  0  0  0  0  0  0  0  0  0  0  0
    2.9686   -2.2157   -4.0725 C   0  0  0  0  0  0  0  0  0  0  0  0
    2.3465   -0.8753   -4.1844 C   0  0  0  0  0  0  0  0  0  0  0  0
    2.9933    0.1880   -3.2919 C   0  0  0  0  0  0  0  0  0  0  0  0
    2.8443   -0.2324   -1.8418 C   0  0  0  0  0  0  0  0  0  0  0  0
    3.3986    0.7975   -0.9190 C   0  0  0  0  0  0  0  0  0  0  0  0
    4.8438    1.0964   -1.0641 C   0  0  0  0  0  0  0  0  0  0  0  0
    5.3126    2.1848   -0.0844 C   0  0  0  0  0  0  0  0  0  0  0  0
    5.0751    1.8003    1.3570 C   0  0  0  0  0  0  0  0  0  0  0  0
    5.5704    2.9259    2.2540 C   0  0  0  0  0  0  0  0  0  0  0  0
    5.3779    2.6257    3.7078 C   0  0  0  0  0  0  0  0  0  0  0  0
    3.9294    2.4207    4.0931 C   0  0  0  0  0  0  0  0  0  0  0  0
   -1.6398   -1.9809   -2.8865 C   0  0  1  0  0  0  0  0  0  0  0  0
   -1.5314   -0.5223   -2.4021 C   0  0  0  0  0  0  0  0  0  0  0  0
   -1.5952    0.4253   -3.5522 C   0  0  0  0  0  0  0  0  0  0  0  0
   -1.2715    1.8211   -3.1094 C   0  0  0  0  0  0  0  0  0  0  0  0
   -2.0274    2.3706   -1.9661 C   0  0  0  0  0  0  0  0  0  0  0  0
   -3.4875    2.4520   -2.1758 C   0  0  0  0  0  0  0  0  0  0  0  0
   -4.1918    3.0369   -0.9216 C   0  0  0  0  0  0  0  0  0  0  0  0
   -4.0103    2.1806    0.2813 C   0  0  0  0  0  0  0  0  0  0  0  0
   -4.5536    2.6379    1.5777 C   0  0  0  0  0  0  0  0  0  0  0  0
   -4.0217    3.8238    2.2441 C   0  0  0  0  0  0  0  0  0  0  0  0
   -4.0727    5.1714    1.6195 C   0  0  0  0  0  0  0  0  0  0  0  0
   -5.4759    5.5271    1.3349 C   0  0  0  0  0  0  0  0  0  0  0  0
   -5.8026    6.8464    0.7497 C   0  0  0  0  0  0  0  0  0  0  0  0
   -5.3347    7.2095   -0.5748 C   0  0  0  0  0  0  0  0  0  0  0  0
   -3.9455    7.3116   -0.9872 C   0  0  0  0  0  0  0  0  0  0  0  0
   -3.0326    8.2511   -0.2447 C   0  0  0  0  0  0  0  0  0  0  0  0
   -1.6902    8.1347   -0.9972 C   0  0  0  0  0  0  0  0  0  0  0  0
   -1.8769    8.5772   -2.4354 C   0  0  0  0  0  0  0  0  0  0  0  0
   -1.2420   -2.1850    6.2246 N   0  0  2  0  0  0  0  0  0  0  0  0
   -1.6740   -2.8310   -1.8555 O   0  0  0  0  0  0  0  0  0  0  0  0
   -1.2921   -5.4628   -2.2677 O   0  0  0  0  0  0  0  0  0  0  0  0
   -1.9686   -7.6340   -2.3038 O   0  0  0  0  0  0  0  0  0  0  0  0
   -2.5039   -2.1816   -3.8966 O   0  0  0  0  0  0  0  0  0  0  0  0
    2.3949   -3.1359    2.8312 O   0  0  0  0  0  0  0  0  0  0  0  0
    0.9798   -4.9264    3.0820 O   0  0  0  0  0  0  0  0  0  0  0  0
    0.5844   -4.0351    0.7383 O   0  0  0  0  0  0  0  0  0  0  0  0
    0.3457   -2.7607    3.7764 O   0  0  0  0  0  0  0  0  0  0  0  0
    0.8307   -3.4544    2.3110 P   0  0  0  0  0  0  0  0  0  0  0  0
   -1.4117   -4.0984    0.5652 H   0  0  0  0  0  0  0  0  0  0  0  0
   -0.6916   -2.4763    0.6923 H   0  0  0  0  0  0  0  0  0  0  0  0
    0.3574   -2.7618   -1.6010 H   0  0  0  0  0  0  0  0  0  0  0  0
    0.6011   -4.6343   -2.6679 H   0  0  0  0  0  0  0  0  0  0  0  0
    0.3191   -5.3545   -1.1023 H   0  0  0  0  0  0  0  0  0  0  0  0
   -1.4444   -3.1113    2.9657 H   0  0  0  0  0  0  0  0  0  0  0  0
   -0.9734   -4.1825    4.3369 H   0  0  0  0  0  0  0  0  0  0  0  0
   -1.8818   -1.2317    4.5205 H   0  0  0  0  0  0  0  0  0  0  0  0
   -2.7946   -2.6737    4.9591 H   0  0  0  0  0  0  0  0  0  0  0  0
   -1.7814   -4.2366    6.5319 H   0  0  0  0  0  0  0  0  0  0  0  0
   -0.0531   -3.8749    6.5828 H   0  0  0  0  0  0  0  0  0  0  0  0
   -1.0851   -3.4374    7.9658 H   0  0  0  0  0  0  0  0  0  0  0  0
   -2.8936   -2.0472    7.5839 H   0  0  0  0  0  0  0  0  0  0  0  0
   -2.7990   -0.7893    6.3374 H   0  0  0  0  0  0  0  0  0  0  0  0
   -1.6390   -0.6927    7.6988 H   0  0  0  0  0  0  0  0  0  0  0  0
    0.1498   -0.9754    7.2671 H   0  0  0  0  0  0  0  0  0  0  0  0
    0.0940   -0.7370    5.4747 H   0  0  0  0  0  0  0  0  0  0  0  0
    0.8608   -2.2204    6.2343 H   0  0  0  0  0  0  0  0  0  0  0  0
   -0.0229   -7.0424   -2.6764 H   0  0  0  0  0  0  0  0  0  0  0  0
   -1.2938   -7.5934   -4.8131 H   0  0  0  0  0  0  0  0  0  0  0  0
   -2.3194   -6.1592   -4.5317 H   0  0  0  0  0  0  0  0  0  0  0  0
   -0.4723   -4.6596   -4.6678 H   0  0  0  0  0  0  0  0  0  0  0  0
   -0.6137   -5.6279   -6.1226 H   0  0  0  0  0  0  0  0  0  0  0  0
    1.1744   -6.6371   -3.8530 H   0  0  0  0  0  0  0  0  0  0  0  0
    0.8893   -7.3201   -5.4793 H   0  0  0  0  0  0  0  0  0  0  0  0
    2.0905   -5.5425   -6.5699 H   0  0  0  0  0  0  0  0  0  0  0  0
    3.0192   -6.5614   -5.4887 H   0  0  0  0  0  0  0  0  0  0  0  0
    3.8897   -4.4067   -5.2773 H   0  0  0  0  0  0  0  0  0  0  0  0
    3.1319   -4.7346   -3.7226 H   0  0  0  0  0  0  0  0  0  0  0  0
    1.1276   -3.1967   -4.5077 H   0  0  0  0  0  0  0  0  0  0  0  0
    2.1870   -2.8544   -5.9688 H   0  0  0  0  0  0  0  0  0  0  0  0
    3.9874   -2.2922   -4.4491 H   0  0  0  0  0  0  0  0  0  0  0  0
    2.8291   -2.5815   -3.0305 H   0  0  0  0  0  0  0  0  0  0  0  0
    2.4482   -0.4611   -5.2331 H   0  0  0  0  0  0  0  0  0  0  0  0
    1.2753   -0.9204   -4.0001 H   0  0  0  0  0  0  0  0  0  0  0  0
    4.0427    0.3779   -3.5652 H   0  0  0  0  0  0  0  0  0  0  0  0
    2.4242    1.1272   -3.4009 H   0  0  0  0  0  0  0  0  0  0  0  0
    1.7952   -0.4435   -1.5848 H   0  0  0  0  0  0  0  0  0  0  0  0
    3.3969   -1.1803   -1.6413 H   0  0  0  0  0  0  0  0  0  0  0  0
    2.7656    1.7186   -0.9483 H   0  0  0  0  0  0  0  0  0  0  0  0
    3.2429    0.4038    0.1247 H   0  0  0  0  0  0  0  0  0  0  0  0
    5.0707    1.4717   -2.0698 H   0  0  0  0  0  0  0  0  0  0  0  0
    5.4986    0.2031   -0.8770 H   0  0  0  0  0  0  0  0  0  0  0  0
    6.3789    2.3239   -0.3055 H   0  0  0  0  0  0  0  0  0  0  0  0
    4.7953    3.1179   -0.3530 H   0  0  0  0  0  0  0  0  0  0  0  0
    5.7072    0.9179    1.5929 H   0  0  0  0  0  0  0  0  0  0  0  0
    4.0117    1.5733    1.5499 H   0  0  0  0  0  0  0  0  0  0  0  0
    6.6353    3.0801    2.0652 H   0  0  0  0  0  0  0  0  0  0  0  0
    5.0541    3.8786    2.0007 H   0  0  0  0  0  0  0  0  0  0  0  0
    5.7546    3.4987    4.2922 H   0  0  0  0  0  0  0  0  0  0  0  0
    5.9721    1.7421    4.0232 H   0  0  0  0  0  0  0  0  0  0  0  0
    3.9014    2.2683    5.2010 H   0  0  0  0  0  0  0  0  0  0  0  0
    3.5088    1.5536    3.5652 H   0  0  0  0  0  0  0  0  0  0  0  0
    3.3529    3.3318    3.8595 H   0  0  0  0  0  0  0  0  0  0  0  0
   -0.5616   -2.1029   -3.3124 H   0  0  0  0  0  0  0  0  0  0  0  0
   -2.3515   -0.2629   -1.7027 H   0  0  0  0  0  0  0  0  0  0  0  0
   -0.5917   -0.4466   -1.8435 H   0  0  0  0  0  0  0  0  0  0  0  0
   -2.5895    0.4061   -4.0623 H   0  0  0  0  0  0  0  0  0  0  0  0
   -0.7982    0.1431   -4.2809 H   0  0  0  0  0  0  0  0  0  0  0  0
   -0.1658    1.9237   -2.9538 H   0  0  0  0  0  0  0  0  0  0  0  0
   -1.4601    2.4887   -4.0122 H   0  0  0  0  0  0  0  0  0  0  0  0
   -1.7280    1.8713   -1.0068 H   0  0  0  0  0  0  0  0  0  0  0  0
   -1.6448    3.4413   -1.8248 H   0  0  0  0  0  0  0  0  0  0  0  0
   -3.7198    3.1558   -2.9883 H   0  0  0  0  0  0  0  0  0  0  0  0
   -3.9423    1.4671   -2.3197 H   0  0  0  0  0  0  0  0  0  0  0  0
   -3.9557    4.0933   -0.8246 H   0  0  0  0  0  0  0  0  0  0  0  0
   -5.2863    2.9153   -1.2153 H   0  0  0  0  0  0  0  0  0  0  0  0
   -2.9563    1.7924    0.4210 H   0  0  0  0  0  0  0  0  0  0  0  0
   -4.5588    1.2028    0.0331 H   0  0  0  0  0  0  0  0  0  0  0  0
   -4.3977    1.7723    2.3185 H   0  0  0  0  0  0  0  0  0  0  0  0
   -5.7008    2.6571    1.5224 H   0  0  0  0  0  0  0  0  0  0  0  0
   -4.4569    3.8445    3.2877 H   0  0  0  0  0  0  0  0  0  0  0  0
   -2.9095    3.6214    2.4229 H   0  0  0  0  0  0  0  0  0  0  0  0
   -3.7563    5.8997    2.4608 H   0  0  0  0  0  0  0  0  0  0  0  0
   -3.3041    5.2901    0.8891 H   0  0  0  0  0  0  0  0  0  0  0  0
   -5.9888    4.7200    0.7014 H   0  0  0  0  0  0  0  0  0  0  0  0
   -6.0265    5.3624    2.3275 H   0  0  0  0  0  0  0  0  0  0  0  0
   -5.6432    7.6768    1.5227 H   0  0  0  0  0  0  0  0  0  0  0  0
   -6.9502    6.8774    0.7021 H   0  0  0  0  0  0  0  0  0  0  0  0
   -5.8876    8.1511   -0.9602 H   0  0  0  0  0  0  0  0  0  0  0  0
   -5.8107    6.4413   -1.2957 H   0  0  0  0  0  0  0  0  0  0  0  0
   -3.3979    6.3646   -1.1501 H   0  0  0  0  0  0  0  0  0  0  0  0
   -3.9315    7.7513   -2.0567 H   0  0  0  0  0  0  0  0  0  0  0  0
   -3.3710    9.2682   -0.4348 H   0  0  0  0  0  0  0  0  0  0  0  0
   -2.7855    7.9745    0.7730 H   0  0  0  0  0  0  0  0  0  0  0  0
   -0.8855    8.7253   -0.5568 H   0  0  0  0  0  0  0  0  0  0  0  0
   -1.3541    7.0553   -0.9945 H   0  0  0  0  0  0  0  0  0  0  0  0
   -0.8721    8.9193   -2.7956 H   0  0  0  0  0  0  0  0  0  0  0  0
   -2.5006    9.4926   -2.4202 H   0  0  0  0  0  0  0  0  0  0  0  0
   -2.1936    7.7895   -3.1076 H   0  0  0  0  0  0  0  0  0  0  0  0
   -1.5608   -8.5438   -2.3927 H   0  0  0  0  0  0  0  0  0  0  0  0
   -3.3470   -2.6753   -3.6316 H   0  0  0  0  0  0  0  0  0  0  0  0
    3.1047   -3.5809    2.2665 H   0  0  0  0  0  0  0  0  0  0  0  0
    1.5793   -5.5770    2.6870 H   0  0  0  0  0  0  0  0  0  0  0  0
    1.2087   -2.3249    3.0969 H   0  0  0  0  0  0  0  0  0  0  0  0
  1  2  1  0
  1 52  1  0
  2  3  1  0
  2 46  1  0
  3 47  1  0
  4  5  1  0
  4 53  1  0
 45  5  1  6
  6 45  1  0
  7 45  1  0
  8 45  1  0
  9 10  1  0
  9 47  1  0
  9 48  1  0
 10 11  1  0
 11 12  1  0
 12 13  1  0
 13 14  1  0
 14 15  1  0
 15 16  1  0
 16 17  1  0
 17 18  1  0
 18 19  1  0
 19 20  1  0
 20 21  1  0
 21 22  1  0
 22 23  1  0
 23 24  1  0
 24 25  1  0
 25 26  1  0
 27 28  1  0
 27 46  1  0
 27 49  1  0
 28 29  1  0
 29 30  1  0
 30 31  1  0
 31 32  1  0
 32 33  1  0
 33 34  1  0
 34 35  1  0
 35 36  1  0
 36 37  1  0
 37 38  1  0
 38 39  1  0
 39 40  1  0
 40 41  1  0
 41 42  1  0
 42 43  1  0
 43 44  1  0
 50 54  1  0
 51 54  1  0
 52 54  1  0
 53 54  1  0
  1 55  1  0
  1 56  1  0
  2 57  1  6
  3 58  1  0
  3 59  1  0
  4 60  1  0
  4 61  1  0
  5 62  1  0
  5 63  1  0
  6 64  1  0
  6 65  1  0
  6 66  1  0
  7 67  1  0
  7 68  1  0
  7 69  1  0
  8 70  1  0
  8 71  1  0
  8 72  1  0
  9 73  1  0
 10 74  1  0
 10 75  1  0
 11 76  1  0
 11 77  1  0
 12 78  1  0
 12 79  1  0
 13 80  1  0
 13 81  1  0
 14 82  1  0
 14 83  1  0
 15 84  1  0
 15 85  1  0
 16 86  1  0
 16 87  1  0
 17 88  1  0
 17 89  1  0
 18 90  1  0
 18 91  1  0
 19 92  1  0
 19 93  1  0
 20 94  1  0
 20 95  1  0
 21 96  1  0
 21 97  1  0
 22 98  1  0
 22 99  1  0
 23100  1  0
 23101  1  0
 24102  1  0
 24103  1  0
 25104  1  0
 25105  1  0
 26106  1  0
 26107  1  0
 26108  1  0
 27109  1  6
 28110  1  0
 28111  1  0
 29112  1  0
 29113  1  0
 30114  1  0
 30115  1  0
 31116  1  0
 31117  1  0
 32118  1  0
 32119  1  0
 33120  1  0
 33121  1  0
 34122  1  0
 34123  1  0
 35124  1  0
 35125  1  0
 36126  1  0
 36127  1  0
 37128  1  0
 37129  1  0
 38130  1  0
 38131  1  0
 39132  1  0
 39133  1  0
 40134  1  0
 40135  1  0
 41136  1  0
 41137  1  0
 42138  1  0
 42139  1  0
 43140  1  0
 43141  1  0
 44142  1  0
 44143  1  0
 44144  1  0
 48145  1  0
 49146  1  0
 50147  1  0
 51148  1  0
 54149  1  0
M  CHG  1  45   1
M  END
$$$$
PHOSPHATIDYLCHOLINE TRANSFER PROTEIN
     RDKit          3D

149148  0  0  0  0  0  0  0  0999 V2000
   -1.2662    2.6401   -1.0054 C   0  0  0  0  0  0  0  0  0  0  0  0
   -1.0054    1.5989   -2.1335 C   0  0  1  0  0  0  0  0  0  0  0  0
   -1.4028    2.3141   -3.4448 C   0  0  0  0  0  0  0  0  0  0  0  0
   -2.0018    6.8158   -0.7424 C   0  0  0  0  0  0  0  0  0  0  0  0
   -3.1898    7.7284   -0.4946 C   0  0  0  0  0  0  0  0  0  0  0  0
   -4.3395    6.3565    1.1336 C   0  0  0  0  0  0  0  0  0  0  0  0
   -4.5442    5.8705   -1.1594 C   0  0  0  0  0  0  0  0  0  0  0  0
   -5.5234    7.8254   -0.2971 C   0  0  0  0  0  0  0  0  0  0  0  0
   -2.2325    0.4053   -4.5230 C   0  0  0  0  0  0  0  0  0  0  0  0
   -1.8665   -0.5297   -5.6348 C   0  0  0  0  0  0  0  0  0  0  0  0
   -2.7546   -1.7559   -5.6565 C   0  0  0  0  0  0  0  0  0  0  0  0
   -2.6053   -2.6819   -4.5141 C   0  0  0  0  0  0  0  0  0  0  0  0
   -1.2167   -3.3465   -4.4919 C   0  0  0  0  0  0  0  0  0  0  0  0
   -0.9901   -4.1285   -5.7062 C   0  0  0  0  0  0  0  0  0  0  0  0
    0.2477   -4.8869   -5.9252 C   0  0  0  0  0  0  0  0  0  0  0  0
    1.5613   -4.2458   -6.0254 C   0  0  0  0  0  0  0  0  0  0  0  0
    2.1632   -3.5283   -4.8900 C   0  0  0  0  0  0  0  0  0  0  0  0
    2.3504   -4.4859   -3.6677 C   0  0  0  0  0  0  0  0  0  0  0  0
    2.9827   -3.6854   -2.5970 C   0  0  0  0  0  0  0  0  0  0  0  0
    3.3067   -4.3815   -1.3524 C   0  0  0  0  0  0  0  0  0  0  0  0
    2.2499   -4.9005   -0.5048 C   0  0  0  0  0  0  0  0  0  0  0  0
    1.2741   -5.9277   -0.9288 C   0  0  0  0  0  0  0  0  0  0  0  0
    0.4262   -6.2087    0.3547 C   0  0  0  0  0  0  0  0  0  0  0  0
   -0.6171   -7.2400    0.0863 C   0  0  0  0  0  0  0  0  0  0  0  0
   -1.6074   -6.8690   -0.9707 C   0  0  0  0  0  0  0  0  0  0  0  0
   -2.6122   -7.9979   -1.1539 C   0  0  0  0  0  0  0  0  0  0  0  0
    0.9082    0.0538   -2.0874 C   0  0  1  0  0  0  0  0  0  0  0  0
    1.3095   -0.4166   -0.6363 C   0  0  0  0  0  0  0  0  0  0  0  0
    0.0580   -0.8680    0.0657 C   0  0  0  0  0  0  0  0  0  0  0  0
    0.2961   -1.3183    1.4993 C   0  0  0  0  0  0  0  0  0  0  0  0
   -0.9836   -1.8839    2.0753 C   0  0  0  0  0  0  0  0  0  0  0  0
   -0.9017   -2.3400    3.4730 C   0  0  0  0  0  0  0  0  0  0  0  0
   -0.6435   -1.2883    4.5263 C   0  0  0  0  0  0  0  0  0  0  0  0
   -1.7329   -0.2601    4.5511 C   0  0  0  0  0  0  0  0  0  0  0  0
   -1.5650    0.7371    5.6187 C   0  0  0  0  0  0  0  0  0  0  0  0
   -0.3434    1.5791    5.6334 C   0  0  0  0  0  0  0  0  0  0  0  0
   -0.1227    2.4040    4.4063 C   0  0  0  0  0  0  0  0  0  0  0  0
    1.0700    3.2927    4.5291 C   0  0  0  0  0  0  0  0  0  0  0  0
    2.3626    2.5661    4.8017 C   0  0  0  0  0  0  0  0  0  0  0  0
    3.4265    3.6510    4.8665 C   0  0  0  0  0  0  0  0  0  0  0  0
    4.7996    3.1642    5.1474 C   0  0  0  0  0  0  0  0  0  0  0  0
    4.9400    2.4470    6.4744 C   0  0  0  0  0  0  0  0  0  0  0  0
    4.5610    3.3334    7.6373 C   0  0  0  0  0  0  0  0  0  0  0  0
    5.4293    4.5756    7.6920 C   0  0  0  0  0  0  0  0  0  0  0  0
   -4.3749    6.9465   -0.1804 N   0  0  2  0  0  0  0  0  0  0  0  0
    0.1627    1.0882   -2.0964 O   0  0  0  0  0  0  0  0  0  0  0  0
   -1.4459    1.5011   -4.4927 O   0  0  0  0  0  0  0  0  0  0  0  0
   -3.5028    1.0533   -5.0852 O   0  0  0  0  0  0  0  0  0  0  0  0
    2.0098   -0.1104   -2.8704 O   0  0  0  0  0  0  0  0  0  0  0  0
   -0.6326    5.2344    1.5783 O   0  0  0  0  0  0  0  0  0  0  0  0
    0.7719    5.9460   -0.3964 O   0  0  0  0  0  0  0  0  0  0  0  0
   -0.3284    3.6706   -1.1507 O   0  0  0  0  0  0  0  0  0  0  0  0
   -1.7352    6.0388    0.3941 O   0  0  0  0  0  0  0  0  0  0  0  0
   -0.5347    4.9185   -0.0698 P   0  0  0  0  0  0  0  0  0  0  0  0
   -2.2742    3.0803   -1.0934 H   0  0  0  0  0  0  0  0  0  0  0  0
   -1.1816    2.1517   -0.0356 H   0  0  0  0  0  0  0  0  0  0  0  0
   -1.8131    0.8427   -2.0391 H   0  0  0  0  0  0  0  0  0  0  0  0
   -0.6484    3.1177   -3.6595 H   0  0  0  0  0  0  0  0  0  0  0  0
   -2.3365    2.8877   -3.2280 H   0  0  0  0  0  0  0  0  0  0  0  0
   -1.1242    7.4648   -0.8840 H   0  0  0  0  0  0  0  0  0  0  0  0
   -2.1813    6.1603   -1.5982 H   0  0  0  0  0  0  0  0  0  0  0  0
   -2.9954    8.5055    0.2507 H   0  0  0  0  0  0  0  0  0  0  0  0
   -3.3977    8.2433   -1.4612 H   0  0  0  0  0  0  0  0  0  0  0  0
   -5.3839    6.2726    1.4918 H   0  0  0  0  0  0  0  0  0  0  0  0
   -3.7847    6.9517    1.8763 H   0  0  0  0  0  0  0  0  0  0  0  0
   -3.9408    5.3144    1.0670 H   0  0  0  0  0  0  0  0  0  0  0  0
   -4.0515    4.9370   -0.8089 H   0  0  0  0  0  0  0  0  0  0  0  0
   -4.1906    6.1544   -2.1534 H   0  0  0  0  0  0  0  0  0  0  0  0
   -5.6333    5.6247   -1.2493 H   0  0  0  0  0  0  0  0  0  0  0  0
   -6.2818    7.4639    0.4521 H   0  0  0  0  0  0  0  0  0  0  0  0
   -5.1824    8.8570   -0.0742 H   0  0  0  0  0  0  0  0  0  0  0  0
   -5.9067    7.7504   -1.3142 H   0  0  0  0  0  0  0  0  0  0  0  0
   -2.6973    0.0080   -3.6434 H   0  0  0  0  0  0  0  0  0  0  0  0
   -2.0691   -0.0078   -6.6078 H   0  0  0  0  0  0  0  0  0  0  0  0
   -0.7964   -0.7918   -5.6399 H   0  0  0  0  0  0  0  0  0  0  0  0
   -3.8062   -1.3569   -5.5884 H   0  0  0  0  0  0  0  0  0  0  0  0
   -2.6863   -2.1870   -6.6504 H   0  0  0  0  0  0  0  0  0  0  0  0
   -3.3702   -3.4646   -4.5553 H   0  0  0  0  0  0  0  0  0  0  0  0
   -2.7000   -2.1346   -3.5693 H   0  0  0  0  0  0  0  0  0  0  0  0
   -0.4861   -2.5460   -4.3591 H   0  0  0  0  0  0  0  0  0  0  0  0
   -1.2018   -3.9912   -3.6009 H   0  0  0  0  0  0  0  0  0  0  0  0
   -1.1503   -3.5203   -6.6554 H   0  0  0  0  0  0  0  0  0  0  0  0
   -1.8488   -4.8909   -5.8298 H   0  0  0  0  0  0  0  0  0  0  0  0
    0.3082   -5.6905   -5.0825 H   0  0  0  0  0  0  0  0  0  0  0  0
    0.1579   -5.5866   -6.8209 H   0  0  0  0  0  0  0  0  0  0  0  0
    2.3628   -4.9944   -6.3675 H   0  0  0  0  0  0  0  0  0  0  0  0
    1.5188   -3.5790   -6.9593 H   0  0  0  0  0  0  0  0  0  0  0  0
    1.7056   -2.6035   -4.6446 H   0  0  0  0  0  0  0  0  0  0  0  0
    3.2703   -3.2764   -5.1057 H   0  0  0  0  0  0  0  0  0  0  0  0
    3.0239   -5.3215   -3.9901 H   0  0  0  0  0  0  0  0  0  0  0  0
    1.3607   -4.8989   -3.5130 H   0  0  0  0  0  0  0  0  0  0  0  0
    3.9094   -3.1858   -3.0618 H   0  0  0  0  0  0  0  0  0  0  0  0
    2.3095   -2.7747   -2.3619 H   0  0  0  0  0  0  0  0  0  0  0  0
    4.0418   -5.2336   -1.6465 H   0  0  0  0  0  0  0  0  0  0  0  0
    3.9869   -3.6504   -0.7670 H   0  0  0  0  0  0  0  0  0  0  0  0
    1.5993   -4.0372   -0.0986 H   0  0  0  0  0  0  0  0  0  0  0  0
    2.7488   -5.3271    0.4433 H   0  0  0  0  0  0  0  0  0  0  0  0
    1.7559   -6.8974   -1.1291 H   0  0  0  0  0  0  0  0  0  0  0  0
    0.5622   -5.5948   -1.6968 H   0  0  0  0  0  0  0  0  0  0  0  0
   -0.0393   -5.2494    0.6123 H   0  0  0  0  0  0  0  0  0  0  0  0
    1.0871   -6.5587    1.1639 H   0  0  0  0  0  0  0  0  0  0  0  0
   -1.1849   -7.3699    1.0512 H   0  0  0  0  0  0  0  0  0  0  0  0
   -0.1939   -8.2386   -0.1752 H   0  0  0  0  0  0  0  0  0  0  0  0
   -2.1966   -5.9923   -0.6296 H   0  0  0  0  0  0  0  0  0  0  0  0
   -1.1188   -6.6851   -1.9299 H   0  0  0  0  0  0  0  0  0  0  0  0
   -2.0976   -8.9154   -1.4323 H   0  0  0  0  0  0  0  0  0  0  0  0
   -3.0859   -8.1694   -0.1628 H   0  0  0  0  0  0  0  0  0  0  0  0
   -3.4040   -7.7114   -1.8654 H   0  0  0  0  0  0  0  0  0  0  0  0
    0.2106   -0.8651   -2.3353 H   0  0  0  0  0  0  0  0  0  0  0  0
    1.6802    0.4949   -0.0908 H   0  0  0  0  0  0  0  0  0  0  0  0
    2.0903   -1.1779   -0.6976 H   0  0  0  0  0  0  0  0  0  0  0  0
   -0.7199   -0.0929    0.0529 H   0  0  0  0  0  0  0  0  0  0  0  0
   -0.3815   -1.7237   -0.5279 H   0  0  0  0  0  0  0  0  0  0  0  0
    0.6981   -0.5081    2.1187 H   0  0  0  0  0  0  0  0  0  0  0  0
    1.0741   -2.1019    1.4395 H   0  0  0  0  0  0  0  0  0  0  0  0
   -1.2168   -2.8169    1.4592 H   0  0  0  0  0  0  0  0  0  0  0  0
   -1.8462   -1.2208    1.8507 H   0  0  0  0  0  0  0  0  0  0  0  0
   -1.8037   -2.9202    3.7984 H   0  0  0  0  0  0  0  0  0  0  0  0
   -0.0681   -3.1020    3.5773 H   0  0  0  0  0  0  0  0  0  0  0  0
    0.3348   -0.7770    4.3001 H   0  0  0  0  0  0  0  0  0  0  0  0
   -0.5474   -1.7500    5.5120 H   0  0  0  0  0  0  0  0  0  0  0  0
   -2.6817   -0.8328    4.7823 H   0  0  0  0  0  0  0  0  0  0  0  0
   -1.8394    0.2470    3.5592 H   0  0  0  0  0  0  0  0  0  0  0  0
   -1.5617    0.1730    6.6104 H   0  0  0  0  0  0  0  0  0  0  0  0
   -2.4573    1.4225    5.7056 H   0  0  0  0  0  0  0  0  0  0  0  0
   -0.4758    2.3188    6.4799 H   0  0  0  0  0  0  0  0  0  0  0  0
    0.5571    0.9950    5.9289 H   0  0  0  0  0  0  0  0  0  0  0  0
   -1.0041    3.0976    4.2565 H   0  0  0  0  0  0  0  0  0  0  0  0
   -0.0568    1.8147    3.4582 H   0  0  0  0  0  0  0  0  0  0  0  0
    1.2461    3.9079    3.6149 H   0  0  0  0  0  0  0  0  0  0  0  0
    0.9068    4.0592    5.3475 H   0  0  0  0  0  0  0  0  0  0  0  0
    2.2522    2.0612    5.7871 H   0  0  0  0  0  0  0  0  0  0  0  0
    2.5665    1.8916    3.9608 H   0  0  0  0  0  0  0  0  0  0  0  0
    3.0542    4.3897    5.6006 H   0  0  0  0  0  0  0  0  0  0  0  0
    3.4346    4.1522    3.8768 H   0  0  0  0  0  0  0  0  0  0  0  0
    5.4848    4.0183    5.1721 H   0  0  0  0  0  0  0  0  0  0  0  0
    5.1327    2.4687    4.3623 H   0  0  0  0  0  0  0  0  0  0  0  0
    6.0236    2.2178    6.5949 H   0  0  0  0  0  0  0  0  0  0  0  0
    4.3917    1.5089    6.5468 H   0  0  0  0  0  0  0  0  0  0  0  0
    4.7983    2.7731    8.5691 H   0  0  0  0  0  0  0  0  0  0  0  0
    3.5103    3.6202    7.6771 H   0  0  0  0  0  0  0  0  0  0  0  0
    6.4969    4.3675    7.7295 H   0  0  0  0  0  0  0  0  0  0  0  0
    5.2279    5.2742    6.8629 H   0  0  0  0  0  0  0  0  0  0  0  0
    5.1573    5.1216    8.6152 H   0  0  0  0  0  0  0  0  0  0  0  0
   -3.1825    1.4650   -5.9313 H   0  0  0  0  0  0  0  0  0  0  0  0
    2.1826    0.6481   -3.4980 H   0  0  0  0  0  0  0  0  0  0  0  0
    0.2495    5.3404    1.9967 H   0  0  0  0  0  0  0  0  0  0  0  0
    0.7254    6.7919    0.1117 H   0  0  0  0  0  0  0  0  0  0  0  0
    0.4980    4.4730   -0.9436 H   0  0  0  0  0  0  0  0  0  0  0  0
  1  2  1  0
  1 52  1  0
  2  3  1  0
  2 46  1  0
  3 47  1  0
  4  5  1  0
  4 53  1  0
 45  5  1  6
  6 45  1  0
  7 45  1  0
  8 45  1  0
  9 10  1  0
  9 47  1  0
  9 48  1  0
 10 11  1  0
 11 12  1  0
 12 13  1  0
 13 14  1  0
 14 15  1  0
 15 16  1  0
 16 17  1  0
 17 18  1  0
 18 19  1  0
 19 20  1  0
 20 21  1  0
 21 22  1  0
 22 23  1  0
 23 24  1  0
 24 25  1  0
 25 26  1  0
 27 28  1  0
 27 46  1  0
 27 49  1  0
 28 29  1  0
 29 30  1  0
 30 31  1  0
 31 32  1  0
 32 33  1  0
 33 34  1  0
 34 35  1  0
 35 36  1  0
 36 37  1  0
 37 38  1  0
 38 39  1  0
 39 40  1  0
 40 41  1  0
 41 42  1  0
 42 43  1  0
 43 44  1  0
 50 54  1  0
 51 54  1  0
 52 54  1  0
 53 54  1  0
  1 55  1  0
  1 56  1  0
  2 57  1  1
  3 58  1  0
  3 59  1  0
  4 60  1  0
  4 61  1  0
  5 62  1  0
  5 63  1  0
  6 64  1  0
  6 65  1  0
  6 66  1  0
  7 67  1  0
  7 68  1  0
  7 69  1  0
  8 70  1  0
  8 71  1  0
  8 72  1  0
  9 73  1  0
 10 74  1  0
 10 75  1  0
 11 76  1  0
 11 77  1  0
 12 78  1  0
 12 79  1  0
 13 80  1  0
 13 81  1  0
 14 82  1  0
 14 83  1  0
 15 84  1  0
 15 85  1  0
 16 86  1  0
 16 87  1  0
 17 88  1  0
 17 89  1  0
 18 90  1  0
 18 91  1  0
 19 92  1  0
 19 93  1  0
 20 94  1  0
 20 95  1  0
 21 96  1  0
 21 97  1  0
 22 98  1  0
 22 99  1  0
 23100  1  0
 23101  1  0
 24102  1  0
 24103  1  0
 25104  1  0
 25105  1  0
 26106  1  0
 26107  1  0
 26108  1  0
 27109  1  6
 28110  1  0
 28111  1  0
 29112  1  0
 29113  1  0
 30114  1  0
 30115  1  0
 31116  1  0
 31117  1  0
 32118  1  0
 32119  1  0
 33120  1  0
 33121  1  0
 34122  1  0
 34123  1  0
 35124  1  0
 35125  1  0
 36126  1  0
 36127  1  0
 37128  1  0
 37129  1  0
 38130  1  0
 38131  1  0
 39132  1  0
 39133  1  0
 40134  1  0
 40135  1  0
 41136  1  0
 41137  1  0
 42138  1  0
 42139  1  0
 43140  1  0
 43141  1  0
 44142  1  0
 44143  1  0
 44144  1  0
 48145  1  0
 49146  1  0
 50147  1  0
 51148  1  0
 54149  1  0
M  CHG  1  45   1
M  END
$$$$
PHOSPHATIDYLCHOLINE TRANSFER PROTEIN
     RDKit          3D

149148  0  0  0  0  0  0  0  0999 V2000
    0.3401    3.9000    0.7396 C   0  0  0  0  0  0  0  0  0  0  0  0
   -1.0648    4.6144    0.7165 C   0  0  1  0  0  0  0  0  0  0  0  0
   -1.2547    4.9427   -0.7136 C   0  0  0  0  0  0  0  0  0  0  0  0
    3.6059    2.9230   -1.1897 C   0  0  0  0  0  0  0  0  0  0  0  0
    3.2360    2.2791   -2.5122 C   0  0  0  0  0  0  0  0  0  0  0  0
    3.6787   -0.0422   -2.8749 C   0  0  0  0  0  0  0  0  0  0  0  0
    5.4830    1.3942   -2.3164 C   0  0  0  0  0  0  0  0  0  0  0  0
    4.4490    1.5589   -4.3910 C   0  0  0  0  0  0  0  0  0  0  0  0
   -2.4288    5.5296   -2.4933 C   0  0  0  0  0  0  0  0  0  0  0  0
   -3.1950    4.3459   -3.1158 C   0  0  0  0  0  0  0  0  0  0  0  0
   -3.1492    4.3649   -4.6097 C   0  0  0  0  0  0  0  0  0  0  0  0
   -3.8061    3.0831   -5.1613 C   0  0  0  0  0  0  0  0  0  0  0  0
   -5.2227    3.0069   -4.7367 C   0  0  0  0  0  0  0  0  0  0  0  0
   -5.8774    1.6975   -5.1596 C   0  0  0  0  0  0  0  0  0  0  0  0
   -5.0884    0.5312   -4.5138 C   0  0  0  0  0  0  0  0  0  0  0  0
   -5.0939    0.6174   -3.0555 C   0  0  0  0  0  0  0  0  0  0  0  0
   -4.3323   -0.3817   -2.2742 C   0  0  0  0  0  0  0  0  0  0  0  0
   -2.8839   -0.4668   -2.3686 C   0  0  0  0  0  0  0  0  0  0  0  0
   -2.0713   -0.7565   -3.5317 C   0  0  0  0  0  0  0  0  0  0  0  0
   -2.0197   -1.9955   -4.2956 C   0  0  0  0  0  0  0  0  0  0  0  0
   -3.0918   -2.6465   -5.0232 C   0  0  0  0  0  0  0  0  0  0  0  0
   -4.2946   -3.1646   -4.3417 C   0  0  0  0  0  0  0  0  0  0  0  0
   -3.9719   -4.1355   -3.2174 C   0  0  0  0  0  0  0  0  0  0  0  0
   -3.2328   -5.3247   -3.7101 C   0  0  0  0  0  0  0  0  0  0  0  0
   -2.8435   -6.2854   -2.5842 C   0  0  0  0  0  0  0  0  0  0  0  0
   -2.1037   -7.4693   -3.1559 C   0  0  0  0  0  0  0  0  0  0  0  0
   -2.4264    3.7425    2.4203 C   0  0  1  0  0  0  0  0  0  0  0  0
   -3.0274    2.4510    2.8288 C   0  0  0  0  0  0  0  0  0  0  0  0
   -2.1929    1.2427    2.6628 C   0  0  0  0  0  0  0  0  0  0  0  0
   -0.9148    1.0720    3.3527 C   0  0  0  0  0  0  0  0  0  0  0  0
   -0.9516    1.0751    4.8682 C   0  0  0  0  0  0  0  0  0  0  0  0
    0.4871    0.7713    5.2934 C   0  0  0  0  0  0  0  0  0  0  0  0
    0.6418    0.7353    6.7786 C   0  0  0  0  0  0  0  0  0  0  0  0
    2.0680    0.3328    7.1706 C   0  0  0  0  0  0  0  0  0  0  0  0
    2.3502   -1.0745    6.6309 C   0  0  0  0  0  0  0  0  0  0  0  0
    1.4092   -2.0684    7.2183 C   0  0  0  0  0  0  0  0  0  0  0  0
    1.6149   -3.4538    6.7096 C   0  0  0  0  0  0  0  0  0  0  0  0
    1.4154   -3.5384    5.2138 C   0  0  0  0  0  0  0  0  0  0  0  0
    1.5199   -4.8968    4.6356 C   0  0  0  0  0  0  0  0  0  0  0  0
    2.8454   -5.6088    4.8017 C   0  0  0  0  0  0  0  0  0  0  0  0
    3.9785   -4.8994    4.1481 C   0  0  0  0  0  0  0  0  0  0  0  0
    5.2476   -5.6424    4.1965 C   0  0  0  0  0  0  0  0  0  0  0  0
    5.8713   -6.0125    5.4791 C   0  0  0  0  0  0  0  0  0  0  0  0
    5.1594   -6.9410    6.3853 C   0  0  0  0  0  0  0  0  0  0  0  0
    4.1995    1.3149   -2.9607 N   0  0  2  0  0  0  0  0  0  0  0  0
   -2.0206    3.7223    1.1317 O   0  0  0  0  0  0  0  0  0  0  0  0
   -2.5215    5.4008   -1.0891 O   0  0  0  0  0  0  0  0  0  0  0  0
   -2.8908    6.7350   -2.8759 O   0  0  0  0  0  0  0  0  0  0  0  0
   -3.6843    4.5767    2.2824 O   0  0  0  0  0  0  0  0  0  0  0  0
    4.0463    5.2373    1.5131 O   0  0  0  0  0  0  0  0  0  0  0  0
    3.0843    3.1480    1.5453 O   0  0  0  0  0  0  0  0  0  0  0  0
    1.1806    4.9064    0.2842 O   0  0  0  0  0  0  0  0  0  0  0  0
    2.5636    3.8259   -0.9040 O   0  0  0  0  0  0  0  0  0  0  0  0
    2.7837    4.5342    0.6172 P   0  0  0  0  0  0  0  0  0  0  0  0
    0.3547    3.0867   -0.0037 H   0  0  0  0  0  0  0  0  0  0  0  0
    0.6244    3.6414    1.7575 H   0  0  0  0  0  0  0  0  0  0  0  0
   -0.8806    5.4305    1.3995 H   0  0  0  0  0  0  0  0  0  0  0  0
   -1.0641    4.0246   -1.3530 H   0  0  0  0  0  0  0  0  0  0  0  0
   -0.4639    5.6562   -1.0977 H   0  0  0  0  0  0  0  0  0  0  0  0
    3.6531    2.1646   -0.3912 H   0  0  0  0  0  0  0  0  0  0  0  0
    4.5769    3.4285   -1.3274 H   0  0  0  0  0  0  0  0  0  0  0  0
    3.0547    3.0436   -3.2899 H   0  0  0  0  0  0  0  0  0  0  0  0
    2.2586    1.7243   -2.4016 H   0  0  0  0  0  0  0  0  0  0  0  0
    3.3076   -0.3696   -3.8621 H   0  0  0  0  0  0  0  0  0  0  0  0
    2.8427   -0.0024   -2.1174 H   0  0  0  0  0  0  0  0  0  0  0  0
    4.4662   -0.7528   -2.5427 H   0  0  0  0  0  0  0  0  0  0  0  0
    5.3905    1.5581   -1.2426 H   0  0  0  0  0  0  0  0  0  0  0  0
    5.9811    0.4074   -2.5245 H   0  0  0  0  0  0  0  0  0  0  0  0
    6.0819    2.1681   -2.8480 H   0  0  0  0  0  0  0  0  0  0  0  0
    3.5217    1.9721   -4.8203 H   0  0  0  0  0  0  0  0  0  0  0  0
    4.7311    0.6075   -4.8929 H   0  0  0  0  0  0  0  0  0  0  0  0
    5.2336    2.3305   -4.4418 H   0  0  0  0  0  0  0  0  0  0  0  0
   -1.3468    5.3824   -2.8092 H   0  0  0  0  0  0  0  0  0  0  0  0
   -2.8072    3.4383   -2.6595 H   0  0  0  0  0  0  0  0  0  0  0  0
   -4.2724    4.5618   -2.8285 H   0  0  0  0  0  0  0  0  0  0  0  0
   -3.6591    5.2041   -5.0924 H   0  0  0  0  0  0  0  0  0  0  0  0
   -2.0971    4.3017   -4.9826 H   0  0  0  0  0  0  0  0  0  0  0  0
   -3.1475    2.2557   -4.8433 H   0  0  0  0  0  0  0  0  0  0  0  0
   -3.7410    3.1513   -6.2709 H   0  0  0  0  0  0  0  0  0  0  0  0
   -5.4893    3.2251   -3.7222 H   0  0  0  0  0  0  0  0  0  0  0  0
   -5.7687    3.7847   -5.3584 H   0  0  0  0  0  0  0  0  0  0  0  0
   -6.9010    1.6283   -4.8014 H   0  0  0  0  0  0  0  0  0  0  0  0
   -5.8493    1.5209   -6.2423 H   0  0  0  0  0  0  0  0  0  0  0  0
   -5.7288   -0.3609   -4.8023 H   0  0  0  0  0  0  0  0  0  0  0  0
   -4.1754    0.4139   -5.0700 H   0  0  0  0  0  0  0  0  0  0  0  0
   -6.1855    0.4768   -2.7274 H   0  0  0  0  0  0  0  0  0  0  0  0
   -4.9063    1.6712   -2.6677 H   0  0  0  0  0  0  0  0  0  0  0  0
   -4.8130   -1.3681   -2.2665 H   0  0  0  0  0  0  0  0  0  0  0  0
   -4.5141   -0.0921   -1.1322 H   0  0  0  0  0  0  0  0  0  0  0  0
   -2.4050    0.4887   -1.8510 H   0  0  0  0  0  0  0  0  0  0  0  0
   -2.5128   -1.2306   -1.5536 H   0  0  0  0  0  0  0  0  0  0  0  0
   -2.1513    0.0950   -4.2879 H   0  0  0  0  0  0  0  0  0  0  0  0
   -0.9377   -0.5077   -3.2083 H   0  0  0  0  0  0  0  0  0  0  0  0
   -1.4062   -2.7847   -3.6909 H   0  0  0  0  0  0  0  0  0  0  0  0
   -1.1978   -1.7996   -5.1166 H   0  0  0  0  0  0  0  0  0  0  0  0
   -2.6844   -3.4118   -5.7746 H   0  0  0  0  0  0  0  0  0  0  0  0
   -3.4982   -1.8590   -5.7656 H   0  0  0  0  0  0  0  0  0  0  0  0
   -4.7741   -3.8812   -5.1309 H   0  0  0  0  0  0  0  0  0  0  0  0
   -5.1085   -2.5086   -4.1143 H   0  0  0  0  0  0  0  0  0  0  0  0
   -3.5222   -3.6457   -2.3370 H   0  0  0  0  0  0  0  0  0  0  0  0
   -4.9887   -4.4901   -2.8690 H   0  0  0  0  0  0  0  0  0  0  0  0
   -2.3244   -5.0736   -4.2783 H   0  0  0  0  0  0  0  0  0  0  0  0
   -3.8930   -5.9075   -4.4202 H   0  0  0  0  0  0  0  0  0  0  0  0
   -3.7629   -6.5745   -2.0611 H   0  0  0  0  0  0  0  0  0  0  0  0
   -2.1214   -5.7638   -1.8879 H   0  0  0  0  0  0  0  0  0  0  0  0
   -2.2795   -8.3837   -2.5422 H   0  0  0  0  0  0  0  0  0  0  0  0
   -2.5532   -7.6807   -4.1659 H   0  0  0  0  0  0  0  0  0  0  0  0
   -1.0421   -7.2614   -3.2918 H   0  0  0  0  0  0  0  0  0  0  0  0
   -1.8955    4.2700    3.1819 H   0  0  0  0  0  0  0  0  0  0  0  0
   -3.9275    2.2890    2.1419 H   0  0  0  0  0  0  0  0  0  0  0  0
   -3.4512    2.4918    3.8786 H   0  0  0  0  0  0  0  0  0  0  0  0
   -2.0089    1.1103    1.5424 H   0  0  0  0  0  0  0  0  0  0  0  0
   -2.8394    0.3347    2.8792 H   0  0  0  0  0  0  0  0  0  0  0  0
   -0.1303    1.8189    3.0916 H   0  0  0  0  0  0  0  0  0  0  0  0
   -0.4482    0.0881    3.0395 H   0  0  0  0  0  0  0  0  0  0  0  0
   -1.2193    2.1006    5.1860 H   0  0  0  0  0  0  0  0  0  0  0  0
   -1.6405    0.2945    5.2350 H   0  0  0  0  0  0  0  0  0  0  0  0
    1.1780    1.5506    4.8939 H   0  0  0  0  0  0  0  0  0  0  0  0
    0.7841   -0.1593    4.7849 H   0  0  0  0  0  0  0  0  0  0  0  0
   -0.1014    0.1167    7.2989 H   0  0  0  0  0  0  0  0  0  0  0  0
    0.5018    1.7669    7.1965 H   0  0  0  0  0  0  0  0  0  0  0  0
    2.7783    1.0122    6.6997 H   0  0  0  0  0  0  0  0  0  0  0  0
    2.0916    0.2701    8.2647 H   0  0  0  0  0  0  0  0  0  0  0  0
    2.4238   -1.0833    5.5267 H   0  0  0  0  0  0  0  0  0  0  0  0
    3.3802   -1.3297    6.9890 H   0  0  0  0  0  0  0  0  0  0  0  0
    1.5412   -2.0690    8.3280 H   0  0  0  0  0  0  0  0  0  0  0  0
    0.3359   -1.8100    7.0488 H   0  0  0  0  0  0  0  0  0  0  0  0
    2.6020   -3.8422    7.0168 H   0  0  0  0  0  0  0  0  0  0  0  0
    0.8440   -4.1031    7.1878 H   0  0  0  0  0  0  0  0  0  0  0  0
    2.1480   -2.8911    4.6692 H   0  0  0  0  0  0  0  0  0  0  0  0
    0.4210   -3.1219    4.9981 H   0  0  0  0  0  0  0  0  0  0  0  0
    0.7309   -5.5412    5.1154 H   0  0  0  0  0  0  0  0  0  0  0  0
    1.2862   -4.8076    3.5370 H   0  0  0  0  0  0  0  0  0  0  0  0
    3.0916   -5.6976    5.8875 H   0  0  0  0  0  0  0  0  0  0  0  0
    2.7480   -6.6279    4.3897 H   0  0  0  0  0  0  0  0  0  0  0  0
    3.6645   -4.7641    3.0618 H   0  0  0  0  0  0  0  0  0  0  0  0
    4.0668   -3.8405    4.5099 H   0  0  0  0  0  0  0  0  0  0  0  0
    5.1536   -6.5813    3.5408 H   0  0  0  0  0  0  0  0  0  0  0  0
    6.0290   -5.0332    3.6261 H   0  0  0  0  0  0  0  0  0  0  0  0
    6.2202   -5.0884    6.0405 H   0  0  0  0  0  0  0  0  0  0  0  0
    6.8561   -6.5204    5.2124 H   0  0  0  0  0  0  0  0  0  0  0  0
    4.7035   -6.4898    7.2825 H   0  0  0  0  0  0  0  0  0  0  0  0
    5.9219   -7.6549    6.8112 H   0  0  0  0  0  0  0  0  0  0  0  0
    4.4621   -7.5723    5.7841 H   0  0  0  0  0  0  0  0  0  0  0  0
   -2.6857    7.0430   -3.7744 H   0  0  0  0  0  0  0  0  0  0  0  0
   -4.1719    4.0088    1.6318 H   0  0  0  0  0  0  0  0  0  0  0  0
    4.5257    5.8119    0.8953 H   0  0  0  0  0  0  0  0  0  0  0  0
    2.5114    2.3793    1.2552 H   0  0  0  0  0  0  0  0  0  0  0  0
    2.7396    4.6228    2.0006 H   0  0  0  0  0  0  0  0  0  0  0  0
  1  2  1  0
  1 52  1  0
  2  3  1  0
  2 46  1  0
  3 47  1  0
  4  5  1  0
  4 53  1  0
 45  5  1  1
  6 45  1  0
  7 45  1  0
  8 45  1  0
  9 10  1  0
  9 47  1  0
  9 48  1  0
 10 11  1  0
 11 12  1  0
 12 13  1  0
 13 14  1  0
 14 15  1  0
 15 16  1  0
 16 17  1  0
 17 18  1  0
 18 19  1  0
 19 20  1  0
 20 21  1  0
 21 22  1  0
 22 23  1  0
 23 24  1  0
 24 25  1  0
 25 26  1  0
 27 28  1  0
 27 46  1  0
 27 49  1  0
 28 29  1  0
 29 30  1  0
 30 31  1  0
 31 32  1  0
 32 33  1  0
 33 34  1  0
 34 35  1  0
 35 36  1  0
 36 37  1  0
 37 38  1  0
 38 39  1  0
 39 40  1  0
 40 41  1  0
 41 42  1  0
 42 43  1  0
 43 44  1  0
 50 54  1  0
 51 54  1  0
 52 54  1  0
 53 54  1  0
  1 55  1  0
  1 56  1  0
  2 57  1  1
  3 58  1  0
  3 59  1  0
  4 60  1  0
  4 61  1  0
  5 62  1  0
  5 63  1  0
  6 64  1  0
  6 65  1  0
  6 66  1  0
  7 67  1  0
  7 68  1  0
  7 69  1  0
  8 70  1  0
  8 71  1  0
  8 72  1  0
  9 73  1  0
 10 74  1  0
 10 75  1  0
 11 76  1  0
 11 77  1  0
 12 78  1  0
 12 79  1  0
 13 80  1  0
 13 81  1  0
 14 82  1  0
 14 83  1  0
 15 84  1  0
 15 85  1  0
 16 86  1  0
 16 87  1  0
 17 88  1  0
 17 89  1  0
 18 90  1  0
 18 91  1  0
 19 92  1  0
 19 93  1  0
 20 94  1  0
 20 95  1  0
 21 96  1  0
 21 97  1  0
 22 98  1  0
 22 99  1  0
 23100  1  0
 23101  1  0
 24102  1  0
 24103  1  0
 25104  1  0
 25105  1  0
 26106  1  0
 26107  1  0
 26108  1  0
 27109  1  1
 28110  1  0
 28111  1  0
 29112  1  0
 29113  1  0
 30114  1  0
 30115  1  0
 31116  1  0
 31117  1  0
 32118  1  0
 32119  1  0
 33120  1  0
 33121  1  0
 34122  1  0
 34123  1  0
 35124  1  0
 35125  1  0
 36126  1  0
 36127  1  0
 37128  1  0
 37129  1  0
 38130  1  0
 38131  1  0
 39132  1  0
 39133  1  0
 40134  1  0
 40135  1  0
 41136  1  0
 41137  1  0
 42138  1  0
 42139  1  0
 43140  1  0
 43141  1  0
 44142  1  0
 44143  1  0
 44144  1  0
 48145  1  0
 49146  1  0
 50147  1  0
 51148  1  0
 54149  1  0
M  CHG  1  45   1
M  END
$$$$
PHOSPHATIDYLCHOLINE TRANSFER PROTEIN
     RDKit          3D

149148  0  0  0  0  0  0  0  0999 V2000
   -2.2066   -5.0809    0.3688 C   0  0  0  0  0  0  0  0  0  0  0  0
   -1.1240   -4.1119   -0.2921 C   0  0  1  0  0  0  0  0  0  0  0  0
    0.1495   -4.8879   -0.3487 C   0  0  0  0  0  0  0  0  0  0  0  0
   -4.0297   -1.9989    2.8147 C   0  0  0  0  0  0  0  0  0  0  0  0
   -3.8235   -1.1675    4.0310 C   0  0  0  0  0  0  0  0  0  0  0  0
   -2.3409    0.7275    4.0046 C   0  0  0  0  0  0  0  0  0  0  0  0
   -4.6004    0.9640    4.5939 C   0  0  0  0  0  0  0  0  0  0  0  0
   -4.0477    0.5511    2.3688 C   0  0  0  0  0  0  0  0  0  0  0  0
    1.7251   -6.0522    0.8338 C   0  0  0  0  0  0  0  0  0  0  0  0
    2.9462   -6.1053    1.5625 C   0  0  0  0  0  0  0  0  0  0  0  0
    4.1246   -5.2702    1.5866 C   0  0  0  0  0  0  0  0  0  0  0  0
    4.1203   -3.8024    1.9172 C   0  0  0  0  0  0  0  0  0  0  0  0
    5.5712   -3.3771    2.0889 C   0  0  0  0  0  0  0  0  0  0  0  0
    5.9448   -2.0269    2.4380 C   0  0  0  0  0  0  0  0  0  0  0  0
    5.8328   -0.8708    1.5189 C   0  0  0  0  0  0  0  0  0  0  0  0
    6.2965    0.4090    2.2284 C   0  0  0  0  0  0  0  0  0  0  0  0
    5.4325    0.8705    3.3282 C   0  0  0  0  0  0  0  0  0  0  0  0
    4.1531    1.5200    3.0411 C   0  0  0  0  0  0  0  0  0  0  0  0
    3.1403    0.9866    2.1519 C   0  0  0  0  0  0  0  0  0  0  0  0
    2.5314   -0.3414    2.4098 C   0  0  0  0  0  0  0  0  0  0  0  0
    1.5084   -0.6911    1.3006 C   0  0  0  0  0  0  0  0  0  0  0  0
    2.1341   -0.6329   -0.0472 C   0  0  0  0  0  0  0  0  0  0  0  0
    1.1354   -1.0479   -1.1414 C   0  0  0  0  0  0  0  0  0  0  0  0
    1.7681   -0.8767   -2.4963 C   0  0  0  0  0  0  0  0  0  0  0  0
    3.0314   -1.6552   -2.6898 C   0  0  0  0  0  0  0  0  0  0  0  0
    2.8776   -3.1394   -2.5347 C   0  0  0  0  0  0  0  0  0  0  0  0
   -2.4359   -2.8454   -1.7796 C   0  0  1  0  0  0  0  0  0  0  0  0
   -3.5825   -3.1483   -2.6653 C   0  0  0  0  0  0  0  0  0  0  0  0
   -4.5460   -2.0582   -2.8897 C   0  0  0  0  0  0  0  0  0  0  0  0
   -3.9293   -0.7971   -3.4308 C   0  0  0  0  0  0  0  0  0  0  0  0
   -4.9943    0.1935   -3.7922 C   0  0  0  0  0  0  0  0  0  0  0  0
   -4.5340    1.5101   -4.2325 C   0  0  0  0  0  0  0  0  0  0  0  0
   -4.0253    2.4327   -3.2078 C   0  0  0  0  0  0  0  0  0  0  0  0
   -2.9148    2.1585   -2.2874 C   0  0  0  0  0  0  0  0  0  0  0  0
   -2.7219    3.3958   -1.3940 C   0  0  0  0  0  0  0  0  0  0  0  0
   -2.3581    4.6001   -2.1515 C   0  0  0  0  0  0  0  0  0  0  0  0
   -1.0621    4.5015   -2.9095 C   0  0  0  0  0  0  0  0  0  0  0  0
    0.1449    4.2816   -2.0446 C   0  0  0  0  0  0  0  0  0  0  0  0
    0.2959    5.4255   -1.0548 C   0  0  0  0  0  0  0  0  0  0  0  0
    0.4492    6.7627   -1.7126 C   0  0  0  0  0  0  0  0  0  0  0  0
    1.6582    6.8618   -2.5848 C   0  0  0  0  0  0  0  0  0  0  0  0
    2.9436    6.6488   -1.8076 C   0  0  0  0  0  0  0  0  0  0  0  0
    3.0700    7.7022   -0.7206 C   0  0  0  0  0  0  0  0  0  0  0  0
    3.0827    9.0601   -1.4050 C   0  0  0  0  0  0  0  0  0  0  0  0
   -3.6783    0.2453    3.7399 N   0  0  2  0  0  0  0  0  0  0  0  0
   -1.6263   -3.9695   -1.5684 O   0  0  0  0  0  0  0  0  0  0  0  0
    0.7708   -5.0864    0.8931 O   0  0  0  0  0  0  0  0  0  0  0  0
    1.0277   -7.3076    1.2630 O   0  0  0  0  0  0  0  0  0  0  0  0
   -1.6063   -1.8822   -2.4669 O   0  0  0  0  0  0  0  0  0  0  0  0
   -4.9421   -3.7388    0.3239 O   0  0  0  0  0  0  0  0  0  0  0  0
   -5.3352   -5.4027    2.4103 O   0  0  0  0  0  0  0  0  0  0  0  0
   -3.4210   -4.4584    0.3166 O   0  0  0  0  0  0  0  0  0  0  0  0
   -4.1600   -3.3618    3.1833 O   0  0  0  0  0  0  0  0  0  0  0  0
   -4.2322   -4.3088    1.7623 P   0  0  0  0  0  0  0  0  0  0  0  0
   -2.2183   -5.9971   -0.2350 H   0  0  0  0  0  0  0  0  0  0  0  0
   -1.8888   -5.3064    1.3901 H   0  0  0  0  0  0  0  0  0  0  0  0
   -1.1992   -3.2374    0.3247 H   0  0  0  0  0  0  0  0  0  0  0  0
   -0.0748   -5.9410   -0.7256 H   0  0  0  0  0  0  0  0  0  0  0  0
    0.8755   -4.5013   -1.0713 H   0  0  0  0  0  0  0  0  0  0  0  0
   -3.1856   -1.9839    2.1015 H   0  0  0  0  0  0  0  0  0  0  0  0
   -4.9523   -1.7530    2.2561 H   0  0  0  0  0  0  0  0  0  0  0  0
   -2.9216   -1.4828    4.5849 H   0  0  0  0  0  0  0  0  0  0  0  0
   -4.6846   -1.3556    4.7255 H   0  0  0  0  0  0  0  0  0  0  0  0
   -1.8000   -0.0535    4.5923 H   0  0  0  0  0  0  0  0  0  0  0  0
   -1.8016    1.0282    3.0824 H   0  0  0  0  0  0  0  0  0  0  0  0
   -2.3947    1.6159    4.6643 H   0  0  0  0  0  0  0  0  0  0  0  0
   -4.1893    1.0004    5.6061 H   0  0  0  0  0  0  0  0  0  0  0  0
   -5.6212    0.5296    4.5446 H   0  0  0  0  0  0  0  0  0  0  0  0
   -4.5993    2.0288    4.2281 H   0  0  0  0  0  0  0  0  0  0  0  0
   -3.4973   -0.0028    1.6129 H   0  0  0  0  0  0  0  0  0  0  0  0
   -3.8229    1.6303    2.2087 H   0  0  0  0  0  0  0  0  0  0  0  0
   -5.1538    0.4756    2.2857 H   0  0  0  0  0  0  0  0  0  0  0  0
    1.8263   -6.3279   -0.2756 H   0  0  0  0  0  0  0  0  0  0  0  0
    3.3497   -7.2231    1.5759 H   0  0  0  0  0  0  0  0  0  0  0  0
    2.5921   -6.1149    2.7083 H   0  0  0  0  0  0  0  0  0  0  0  0
    4.9505   -5.7368    2.2577 H   0  0  0  0  0  0  0  0  0  0  0  0
    4.6710   -5.3898    0.5676 H   0  0  0  0  0  0  0  0  0  0  0  0
    3.5817   -3.2365    1.1684 H   0  0  0  0  0  0  0  0  0  0  0  0
    3.6515   -3.6788    2.9051 H   0  0  0  0  0  0  0  0  0  0  0  0
    6.0936   -4.1250    2.7701 H   0  0  0  0  0  0  0  0  0  0  0  0
    6.0497   -3.6622    1.0809 H   0  0  0  0  0  0  0  0  0  0  0  0
    5.4288   -1.8033    3.4366 H   0  0  0  0  0  0  0  0  0  0  0  0
    7.0394   -2.0790    2.8264 H   0  0  0  0  0  0  0  0  0  0  0  0
    6.6558   -1.0241    0.7449 H   0  0  0  0  0  0  0  0  0  0  0  0
    4.9296   -0.8270    0.9806 H   0  0  0  0  0  0  0  0  0  0  0  0
    7.2950    0.1500    2.6426 H   0  0  0  0  0  0  0  0  0  0  0  0
    6.4958    1.1467    1.4311 H   0  0  0  0  0  0  0  0  0  0  0  0
    5.3224    0.0574    4.0888 H   0  0  0  0  0  0  0  0  0  0  0  0
    6.0396    1.6374    3.9171 H   0  0  0  0  0  0  0  0  0  0  0  0
    4.3304    2.6139    2.7526 H   0  0  0  0  0  0  0  0  0  0  0  0
    3.6447    1.6727    4.0568 H   0  0  0  0  0  0  0  0  0  0  0  0
    3.4449    1.0057    1.0704 H   0  0  0  0  0  0  0  0  0  0  0  0
    2.2447    1.7047    2.1245 H   0  0  0  0  0  0  0  0  0  0  0  0
    3.1867   -1.1925    2.5028 H   0  0  0  0  0  0  0  0  0  0  0  0
    1.8888   -0.2101    3.3438 H   0  0  0  0  0  0  0  0  0  0  0  0
    1.1764   -1.7214    1.5061 H   0  0  0  0  0  0  0  0  0  0  0  0
    0.6253   -0.0409    1.4044 H   0  0  0  0  0  0  0  0  0  0  0  0
    2.9507   -1.3738   -0.1441 H   0  0  0  0  0  0  0  0  0  0  0  0
    2.5348    0.3696   -0.3179 H   0  0  0  0  0  0  0  0  0  0  0  0
    0.2175   -0.4393   -1.0618 H   0  0  0  0  0  0  0  0  0  0  0  0
    0.8731   -2.1072   -0.9878 H   0  0  0  0  0  0  0  0  0  0  0  0
    1.9715    0.1944   -2.7312 H   0  0  0  0  0  0  0  0  0  0  0  0
    1.0482   -1.2157   -3.2711 H   0  0  0  0  0  0  0  0  0  0  0  0
    3.8291   -1.3459   -1.9668 H   0  0  0  0  0  0  0  0  0  0  0  0
    3.3844   -1.4740   -3.7303 H   0  0  0  0  0  0  0  0  0  0  0  0
    1.9901   -3.5749   -3.0033 H   0  0  0  0  0  0  0  0  0  0  0  0
    3.7546   -3.6505   -3.0279 H   0  0  0  0  0  0  0  0  0  0  0  0
    2.9581   -3.4499   -1.4676 H   0  0  0  0  0  0  0  0  0  0  0  0
   -2.6760   -2.3746   -0.8539 H   0  0  0  0  0  0  0  0  0  0  0  0
   -3.1646   -3.5216   -3.6708 H   0  0  0  0  0  0  0  0  0  0  0  0
   -4.1012   -4.0724   -2.2404 H   0  0  0  0  0  0  0  0  0  0  0  0
   -5.2971   -2.3960   -3.6770 H   0  0  0  0  0  0  0  0  0  0  0  0
   -5.1529   -1.8280   -1.9652 H   0  0  0  0  0  0  0  0  0  0  0  0
   -3.1650   -0.3953   -2.7860 H   0  0  0  0  0  0  0  0  0  0  0  0
   -3.4385   -1.0625   -4.4307 H   0  0  0  0  0  0  0  0  0  0  0  0
   -5.6614    0.2537   -2.8787 H   0  0  0  0  0  0  0  0  0  0  0  0
   -5.6945   -0.2399   -4.5758 H   0  0  0  0  0  0  0  0  0  0  0  0
   -3.7714    1.4372   -5.0778 H   0  0  0  0  0  0  0  0  0  0  0  0
   -5.3959    2.0657   -4.7465 H   0  0  0  0  0  0  0  0  0  0  0  0
   -3.7835    3.4387   -3.7103 H   0  0  0  0  0  0  0  0  0  0  0  0
   -4.8977    2.7801   -2.5276 H   0  0  0  0  0  0  0  0  0  0  0  0
   -3.1510    1.3317   -1.5419 H   0  0  0  0  0  0  0  0  0  0  0  0
   -2.0136    1.8611   -2.8172 H   0  0  0  0  0  0  0  0  0  0  0  0
   -3.7040    3.5953   -0.8934 H   0  0  0  0  0  0  0  0  0  0  0  0
   -2.0388    3.1302   -0.5658 H   0  0  0  0  0  0  0  0  0  0  0  0
   -3.1502    4.9151   -2.8364 H   0  0  0  0  0  0  0  0  0  0  0  0
   -2.2509    5.5010   -1.4685 H   0  0  0  0  0  0  0  0  0  0  0  0
   -1.1095    3.7050   -3.7005 H   0  0  0  0  0  0  0  0  0  0  0  0
   -0.9251    5.4387   -3.4757 H   0  0  0  0  0  0  0  0  0  0  0  0
    0.1899    3.3047   -1.5587 H   0  0  0  0  0  0  0  0  0  0  0  0
    1.0250    4.3144   -2.7353 H   0  0  0  0  0  0  0  0  0  0  0  0
   -0.5962    5.4212   -0.4040 H   0  0  0  0  0  0  0  0  0  0  0  0
    1.1506    5.2156   -0.3509 H   0  0  0  0  0  0  0  0  0  0  0  0
    0.4759    7.5921   -0.9502 H   0  0  0  0  0  0  0  0  0  0  0  0
   -0.4442    6.9970   -2.3230 H   0  0  0  0  0  0  0  0  0  0  0  0
    1.6946    7.8639   -3.0399 H   0  0  0  0  0  0  0  0  0  0  0  0
    1.6308    6.1329   -3.4245 H   0  0  0  0  0  0  0  0  0  0  0  0
    3.0289    5.6306   -1.4166 H   0  0  0  0  0  0  0  0  0  0  0  0
    3.7696    6.8179   -2.5306 H   0  0  0  0  0  0  0  0  0  0  0  0
    4.0491    7.5371   -0.2152 H   0  0  0  0  0  0  0  0  0  0  0  0
    2.2532    7.6598    0.0068 H   0  0  0  0  0  0  0  0  0  0  0  0
    3.7509    9.0180   -2.3089 H   0  0  0  0  0  0  0  0  0  0  0  0
    3.5328    9.8113   -0.7218 H   0  0  0  0  0  0  0  0  0  0  0  0
    2.0911    9.3702   -1.7542 H   0  0  0  0  0  0  0  0  0  0  0  0
    1.6644   -8.0073    0.9653 H   0  0  0  0  0  0  0  0  0  0  0  0
   -1.0087   -2.4264   -3.0519 H   0  0  0  0  0  0  0  0  0  0  0  0
   -5.9141   -3.9008    0.4134 H   0  0  0  0  0  0  0  0  0  0  0  0
   -6.2506   -5.2865    2.0151 H   0  0  0  0  0  0  0  0  0  0  0  0
   -3.8695   -5.4246    2.4932 H   0  0  0  0  0  0  0  0  0  0  0  0
  1  2  1  0
  1 52  1  0
  2  3  1  0
  2 46  1  0
  3 47  1  0
  4  5  1  0
  4 53  1  0
 45  5  1  6
  6 45  1  0
  7 45  1  0
  8 45  1  0
  9 10  1  0
  9 47  1  0
  9 48  1  0
 10 11  1  0
 11 12  1  0
 12 13  1  0
 13 14  1  0
 14 15  1  0
 15 16  1  0
 16 17  1  0
 17 18  1  0
 18 19  1  0
 19 20  1  0
 20 21  1  0
 21 22  1  0
 22 23  1  0
 23 24  1  0
 24 25  1  0
 25 26  1  0
 27 28  1  0
 27 46  1  0
 27 49  1  0
 28 29  1  0
 29 30  1  0
 30 31  1  0
 31 32  1  0
 32 33  1  0
 33 34  1  0
 34 35  1  0
 35 36  1  0
 36 37  1  0
 37 38  1  0
 38 39  1  0
 39 40  1  0
 40 41  1  0
 41 42  1  0
 42 43  1  0
 43 44  1  0
 50 54  1  0
 51 54  1  0
 52 54  1  0
 53 54  1  0
  1 55  1  0
  1 56  1  0
  2 57  1  1
  3 58  1  0
  3 59  1  0
  4 60  1  0
  4 61  1  0
  5 62  1  0
  5 63  1  0
  6 64  1  0
  6 65  1  0
  6 66  1  0
  7 67  1  0
  7 68  1  0
  7 69  1  0
  8 70  1  0
  8 71  1  0
  8 72  1  0
  9 73  1  0
 10 74  1  0
 10 75  1  0
 11 76  1  0
 11 77  1  0
 12 78  1  0
 12 79  1  0
 13 80  1  0
 13 81  1  0
 14 82  1  0
 14 83  1  0
 15 84  1  0
 15 85  1  0
 16 86  1  0
 16 87  1  0
 17 88  1  0
 17 89  1  0
 18 90  1  0
 18 91  1  0
 19 92  1  0
 19 93  1  0
 20 94  1  0
 20 95  1  0
 21 96  1  0
 21 97  1  0
 22 98  1  0
 22 99  1  0
 23100  1  0
 23101  1  0
 24102  1  0
 24103  1  0
 25104  1  0
 25105  1  0
 26106  1  0
 26107  1  0
 26108  1  0
 27109  1  1
 28110  1  0
 28111  1  0
 29112  1  0
 29113  1  0
 30114  1  0
 30115  1  0
 31116  1  0
 31117  1  0
 32118  1  0
 32119  1  0
 33120  1  0
 33121  1  0
 34122  1  0
 34123  1  0
 35124  1  0
 35125  1  0
 36126  1  0
 36127  1  0
 37128  1  0
 37129  1  0
 38130  1  0
 38131  1  0
 39132  1  0
 39133  1  0
 40134  1  0
 40135  1  0
 41136  1  0
 41137  1  0
 42138  1  0
 42139  1  0
 43140  1  0
 43141  1  0
 44142  1  0
 44143  1  0
 44144  1  0
 48145  1  0
 49146  1  0
 50147  1  0
 51148  1  0
 54149  1  0
M  CHG  1  45   1
M  END
$$$$
PHOSPHATIDYLCHOLINE TRANSFER PROTEIN
     RDKit          3D

149148  0  0  0  0  0  0  0  0999 V2000
    0.7613    3.1738   -3.7527 C   0  0  0  0  0  0  0  0  0  0  0  0
    1.8444    2.4031   -2.9469 C   0  0  1  0  0  0  0  0  0  0  0  0
    1.7488    0.9451   -3.2241 C   0  0  0  0  0  0  0  0  0  0  0  0
   -1.3600    1.5485    0.4847 C   0  0  0  0  0  0  0  0  0  0  0  0
   -1.4618    0.1008    0.8491 C   0  0  0  0  0  0  0  0  0  0  0  0
    0.9050    0.2165    1.2237 C   0  0  0  0  0  0  0  0  0  0  0  0
   -0.1384   -1.8399    1.0135 C   0  0  0  0  0  0  0  0  0  0  0  0
   -0.4764   -0.5495    2.9391 C   0  0  0  0  0  0  0  0  0  0  0  0
    0.6886   -1.0207   -3.3713 C   0  0  0  0  0  0  0  0  0  0  0  0
   -0.6426   -1.3350   -3.9514 C   0  0  0  0  0  0  0  0  0  0  0  0
   -0.7581   -2.6711   -4.5980 C   0  0  0  0  0  0  0  0  0  0  0  0
   -2.2019   -2.8558   -5.0851 C   0  0  0  0  0  0  0  0  0  0  0  0
   -3.1379   -2.8804   -3.9182 C   0  0  0  0  0  0  0  0  0  0  0  0
   -4.5651   -2.9915   -4.3992 C   0  0  0  0  0  0  0  0  0  0  0  0
   -5.5180   -3.0393   -3.1885 C   0  0  0  0  0  0  0  0  0  0  0  0
   -5.2902   -4.2894   -2.4360 C   0  0  0  0  0  0  0  0  0  0  0  0
   -6.0854   -4.4255   -1.1478 C   0  0  0  0  0  0  0  0  0  0  0  0
   -5.6547   -3.3641   -0.1535 C   0  0  0  0  0  0  0  0  0  0  0  0
   -6.4454   -3.5546    1.1176 C   0  0  0  0  0  0  0  0  0  0  0  0
   -5.9599   -2.5914    2.1974 C   0  0  0  0  0  0  0  0  0  0  0  0
   -6.7646   -2.8151    3.4425 C   0  0  0  0  0  0  0  0  0  0  0  0
   -6.2687   -1.9726    4.6000 C   0  0  0  0  0  0  0  0  0  0  0  0
   -7.0746   -2.1597    5.8620 C   0  0  0  0  0  0  0  0  0  0  0  0
   -6.4578   -1.3529    6.9703 C   0  0  0  0  0  0  0  0  0  0  0  0
   -6.3616    0.1040    6.7301 C   0  0  0  0  0  0  0  0  0  0  0  0
   -5.7025    0.8416    7.8915 C   0  0  0  0  0  0  0  0  0  0  0  0
    3.7491    3.7550   -2.6114 C   0  0  1  0  0  0  0  0  0  0  0  0
    4.9037    4.2876   -3.3875 C   0  0  0  0  0  0  0  0  0  0  0  0
    5.9125    3.1385   -3.5856 C   0  0  0  0  0  0  0  0  0  0  0  0
    5.4423    1.9857   -4.3139 C   0  0  0  0  0  0  0  0  0  0  0  0
    6.3592    0.7815   -4.4812 C   0  0  0  0  0  0  0  0  0  0  0  0
    6.8358    0.2578   -3.1548 C   0  0  0  0  0  0  0  0  0  0  0  0
    7.9751    1.0024   -2.5635 C   0  0  0  0  0  0  0  0  0  0  0  0
    8.2642    0.6686   -1.0998 C   0  0  0  0  0  0  0  0  0  0  0  0
    7.1552    1.2000   -0.2238 C   0  0  0  0  0  0  0  0  0  0  0  0
    7.3393    0.9104    1.2570 C   0  0  0  0  0  0  0  0  0  0  0  0
    6.2414    1.6103    2.0553 C   0  0  0  0  0  0  0  0  0  0  0  0
    6.4291    1.2995    3.5104 C   0  0  0  0  0  0  0  0  0  0  0  0
    5.4851    2.0105    4.4135 C   0  0  0  0  0  0  0  0  0  0  0  0
    4.0258    1.7994    4.1900 C   0  0  0  0  0  0  0  0  0  0  0  0
    3.2084    2.6145    5.2072 C   0  0  0  0  0  0  0  0  0  0  0  0
    1.7351    2.4507    5.0120 C   0  0  0  0  0  0  0  0  0  0  0  0
    0.9314    3.2457    5.9989 C   0  0  0  0  0  0  0  0  0  0  0  0
    1.1629    2.8900    7.4305 C   0  0  0  0  0  0  0  0  0  0  0  0
   -0.3309   -0.4685    1.5178 N   0  0  2  0  0  0  0  0  0  0  0  0
    3.0842    2.8175   -3.3075 O   0  0  0  0  0  0  0  0  0  0  0  0
    0.6020    0.3029   -2.8440 O   0  0  0  0  0  0  0  0  0  0  0  0
    0.9656   -1.8529   -2.2532 O   0  0  0  0  0  0  0  0  0  0  0  0
    4.5245    2.9506   -1.5740 O   0  0  0  0  0  0  0  0  0  0  0  0
   -2.1392    3.6775   -1.5791 O   0  0  0  0  0  0  0  0  0  0  0  0
   -0.2392    4.4505   -1.6749 O   0  0  0  0  0  0  0  0  0  0  0  0
   -0.4467    2.6052   -3.2847 O   0  0  0  0  0  0  0  0  0  0  0  0
   -0.3071    1.8097   -0.3515 O   0  0  0  0  0  0  0  0  0  0  0  0
   -0.6791    2.8510   -1.6327 P   0  0  0  0  0  0  0  0  0  0  0  0
    0.8359    2.9745   -4.8130 H   0  0  0  0  0  0  0  0  0  0  0  0
    0.7843    4.2044   -3.4181 H   0  0  0  0  0  0  0  0  0  0  0  0
    1.6094    2.7219   -1.9243 H   0  0  0  0  0  0  0  0  0  0  0  0
    2.6767    0.4451   -2.8178 H   0  0  0  0  0  0  0  0  0  0  0  0
    1.8451    0.7398   -4.3386 H   0  0  0  0  0  0  0  0  0  0  0  0
   -1.2379    2.2052    1.3787 H   0  0  0  0  0  0  0  0  0  0  0  0
   -2.3373    1.8434    0.0484 H   0  0  0  0  0  0  0  0  0  0  0  0
   -1.6649   -0.4707   -0.0913 H   0  0  0  0  0  0  0  0  0  0  0  0
   -2.3751   -0.0975    1.4745 H   0  0  0  0  0  0  0  0  0  0  0  0
    0.9126    1.2343    1.6130 H   0  0  0  0  0  0  0  0  0  0  0  0
    1.1340    0.1175    0.1402 H   0  0  0  0  0  0  0  0  0  0  0  0
    1.7188   -0.3528    1.7699 H   0  0  0  0  0  0  0  0  0  0  0  0
   -0.7733   -2.0001    0.1055 H   0  0  0  0  0  0  0  0  0  0  0  0
   -0.4182   -2.5854    1.7835 H   0  0  0  0  0  0  0  0  0  0  0  0
    0.9053   -2.0255    0.6878 H   0  0  0  0  0  0  0  0  0  0  0  0
    0.4079   -0.1560    3.5005 H   0  0  0  0  0  0  0  0  0  0  0  0
   -1.4326   -0.0424    3.2121 H   0  0  0  0  0  0  0  0  0  0  0  0
   -0.5709   -1.6104    3.2385 H   0  0  0  0  0  0  0  0  0  0  0  0
    1.5702   -1.1035   -3.9941 H   0  0  0  0  0  0  0  0  0  0  0  0
   -0.8474   -0.5510   -4.7407 H   0  0  0  0  0  0  0  0  0  0  0  0
   -1.4027   -1.1312   -3.1597 H   0  0  0  0  0  0  0  0  0  0  0  0
   -0.1218   -2.7360   -5.4774 H   0  0  0  0  0  0  0  0  0  0  0  0
   -0.5652   -3.5269   -3.9390 H   0  0  0  0  0  0  0  0  0  0  0  0
   -2.4161   -2.1050   -5.8536 H   0  0  0  0  0  0  0  0  0  0  0  0
   -2.2374   -3.8764   -5.5425 H   0  0  0  0  0  0  0  0  0  0  0  0
   -3.1139   -1.9766   -3.2723 H   0  0  0  0  0  0  0  0  0  0  0  0
   -2.8787   -3.7911   -3.3333 H   0  0  0  0  0  0  0  0  0  0  0  0
   -4.6324   -3.9658   -4.9693 H   0  0  0  0  0  0  0  0  0  0  0  0
   -4.8340   -2.2059   -5.1056 H   0  0  0  0  0  0  0  0  0  0  0  0
   -6.5643   -3.0723   -3.6076 H   0  0  0  0  0  0  0  0  0  0  0  0
   -5.3533   -2.1083   -2.6303 H   0  0  0  0  0  0  0  0  0  0  0  0
   -5.6754   -5.1320   -3.0895 H   0  0  0  0  0  0  0  0  0  0  0  0
   -4.2497   -4.5408   -2.2381 H   0  0  0  0  0  0  0  0  0  0  0  0
   -7.1681   -4.3310   -1.3038 H   0  0  0  0  0  0  0  0  0  0  0  0
   -5.8606   -5.4163   -0.7148 H   0  0  0  0  0  0  0  0  0  0  0  0
   -4.5576   -3.3221   -0.0033 H   0  0  0  0  0  0  0  0  0  0  0  0
   -5.9976   -2.3735   -0.5783 H   0  0  0  0  0  0  0  0  0  0  0  0
   -6.3551   -4.6025    1.4304 H   0  0  0  0  0  0  0  0  0  0  0  0
   -7.5024   -3.2618    0.8886 H   0  0  0  0  0  0  0  0  0  0  0  0
   -4.8867   -2.7027    2.3423 H   0  0  0  0  0  0  0  0  0  0  0  0
   -6.1426   -1.5548    1.8345 H   0  0  0  0  0  0  0  0  0  0  0  0
   -7.8320   -2.5555    3.3043 H   0  0  0  0  0  0  0  0  0  0  0  0
   -6.7249   -3.8860    3.7609 H   0  0  0  0  0  0  0  0  0  0  0  0
   -6.3012   -0.9173    4.3166 H   0  0  0  0  0  0  0  0  0  0  0  0
   -5.2097   -2.2774    4.8403 H   0  0  0  0  0  0  0  0  0  0  0  0
   -7.1669   -3.2300    6.1286 H   0  0  0  0  0  0  0  0  0  0  0  0
   -8.0948   -1.7292    5.6721 H   0  0  0  0  0  0  0  0  0  0  0  0
   -5.4422   -1.7384    7.2219 H   0  0  0  0  0  0  0  0  0  0  0  0
   -7.0820   -1.4938    7.8974 H   0  0  0  0  0  0  0  0  0  0  0  0
   -7.3465    0.5839    6.5525 H   0  0  0  0  0  0  0  0  0  0  0  0
   -5.7398    0.3409    5.8233 H   0  0  0  0  0  0  0  0  0  0  0  0
   -6.0428    0.4137    8.8417 H   0  0  0  0  0  0  0  0  0  0  0  0
   -6.0426    1.8900    7.8412 H   0  0  0  0  0  0  0  0  0  0  0  0
   -4.5895    0.8287    7.7944 H   0  0  0  0  0  0  0  0  0  0  0  0
    3.2380    4.3954   -1.9083 H   0  0  0  0  0  0  0  0  0  0  0  0
    5.3978    5.1745   -2.9895 H   0  0  0  0  0  0  0  0  0  0  0  0
    4.5051    4.5400   -4.4145 H   0  0  0  0  0  0  0  0  0  0  0  0
    6.8177    3.5519   -4.0224 H   0  0  0  0  0  0  0  0  0  0  0  0
    6.1588    2.7960   -2.5068 H   0  0  0  0  0  0  0  0  0  0  0  0
    4.4444    1.5520   -4.0469 H   0  0  0  0  0  0  0  0  0  0  0  0
    5.2667    2.3106   -5.3981 H   0  0  0  0  0  0  0  0  0  0  0  0
    5.7647   -0.0094   -4.9747 H   0  0  0  0  0  0  0  0  0  0  0  0
    7.2108    1.0343   -5.1264 H   0  0  0  0  0  0  0  0  0  0  0  0
    7.1291   -0.8380   -3.2496 H   0  0  0  0  0  0  0  0  0  0  0  0
    6.0088    0.2151   -2.4059 H   0  0  0  0  0  0  0  0  0  0  0  0
    8.1101    2.0378   -2.8188 H   0  0  0  0  0  0  0  0  0  0  0  0
    8.9086    0.5112   -3.1130 H   0  0  0  0  0  0  0  0  0  0  0  0
    8.4176   -0.4029   -0.9801 H   0  0  0  0  0  0  0  0  0  0  0  0
    9.1842    1.1968   -0.8083 H   0  0  0  0  0  0  0  0  0  0  0  0
    6.1847    0.7995   -0.5269 H   0  0  0  0  0  0  0  0  0  0  0  0
    7.1553    2.3261   -0.3569 H   0  0  0  0  0  0  0  0  0  0  0  0
    7.3336   -0.1683    1.4574 H   0  0  0  0  0  0  0  0  0  0  0  0
    8.3162    1.3105    1.5723 H   0  0  0  0  0  0  0  0  0  0  0  0
    6.3520    2.7168    1.9261 H   0  0  0  0  0  0  0  0  0  0  0  0
    5.2350    1.3487    1.6762 H   0  0  0  0  0  0  0  0  0  0  0  0
    6.3819    0.1973    3.6761 H   0  0  0  0  0  0  0  0  0  0  0  0
    7.4618    1.6332    3.8022 H   0  0  0  0  0  0  0  0  0  0  0  0
    5.7441    3.1098    4.3783 H   0  0  0  0  0  0  0  0  0  0  0  0
    5.7697    1.7201    5.4640 H   0  0  0  0  0  0  0  0  0  0  0  0
    3.6956    2.1134    3.1921 H   0  0  0  0  0  0  0  0  0  0  0  0
    3.8024    0.7416    4.4071 H   0  0  0  0  0  0  0  0  0  0  0  0
    3.4887    3.6830    5.2050 H   0  0  0  0  0  0  0  0  0  0  0  0
    3.4888    2.2158    6.2263 H   0  0  0  0  0  0  0  0  0  0  0  0
    1.4295    1.4036    5.0058 H   0  0  0  0  0  0  0  0  0  0  0  0
    1.4661    2.8445    3.9936 H   0  0  0  0  0  0  0  0  0  0  0  0
    1.1829    4.3251    5.8650 H   0  0  0  0  0  0  0  0  0  0  0  0
   -0.1456    3.0632    5.7770 H   0  0  0  0  0  0  0  0  0  0  0  0
    0.8325    3.7885    8.0301 H   0  0  0  0  0  0  0  0  0  0  0  0
    2.2159    2.7367    7.6793 H   0  0  0  0  0  0  0  0  0  0  0  0
    0.4969    2.0746    7.7858 H   0  0  0  0  0  0  0  0  0  0  0  0
    0.6308   -2.7663   -2.3762 H   0  0  0  0  0  0  0  0  0  0  0  0
    4.9921    3.6550   -1.0586 H   0  0  0  0  0  0  0  0  0  0  0  0
   -2.4789    3.7552   -0.6482 H   0  0  0  0  0  0  0  0  0  0  0  0
    0.0482    4.7447   -0.7884 H   0  0  0  0  0  0  0  0  0  0  0  0
   -1.4614    3.1648   -2.7652 H   0  0  0  0  0  0  0  0  0  0  0  0
  1  2  1  0
  1 52  1  0
  2  3  1  0
  2 46  1  0
  3 47  1  0
  4  5  1  0
  4 53  1  0
 45  5  1  6
  6 45  1  0
  7 45  1  0
  8 45  1  0
  9 10  1  0
  9 47  1  0
  9 48  1  0
 10 11  1  0
 11 12  1  0
 12 13  1  0
 13 14  1  0
 14 15  1  0
 15 16  1  0
 16 17  1  0
 17 18  1  0
 18 19  1  0
 19 20  1  0
 20 21  1  0
 21 22  1  0
 22 23  1  0
 23 24  1  0
 24 25  1  0
 25 26  1  0
 27 28  1  0
 27 46  1  0
 27 49  1  0
 28 29  1  0
 29 30  1  0
 30 31  1  0
 31 32  1  0
 32 33  1  0
 33 34  1  0
 34 35  1  0
 35 36  1  0
 36 37  1  0
 37 38  1  0
 38 39  1  0
 39 40  1  0
 40 41  1  0
 41 42  1  0
 42 43  1  0
 43 44  1  0
 50 54  1  0
 51 54  1  0
 52 54  1  0
 53 54  1  0
  1 55  1  0
  1 56  1  0
  2 57  1  1
  3 58  1  0
  3 59  1  0
  4 60  1  0
  4 61  1  0
  5 62  1  0
  5 63  1  0
  6 64  1  0
  6 65  1  0
  6 66  1  0
  7 67  1  0
  7 68  1  0
  7 69  1  0
  8 70  1  0
  8 71  1  0
  8 72  1  0
  9 73  1  0
 10 74  1  0
 10 75  1  0
 11 76  1  0
 11 77  1  0
 12 78  1  0
 12 79  1  0
 13 80  1  0
 13 81  1  0
 14 82  1  0
 14 83  1  0
 15 84  1  0
 15 85  1  0
 16 86  1  0
 16 87  1  0
 17 88  1  0
 17 89  1  0
 18 90  1  0
 18 91  1  0
 19 92  1  0
 19 93  1  0
 20 94  1  0
 20 95  1  0
 21 96  1  0
 21 97  1  0
 22 98  1  0
 22 99  1  0
 23100  1  0
 23101  1  0
 24102  1  0
 24103  1  0
 25104  1  0
 25105  1  0
 26106  1  0
 26107  1  0
 26108  1  0
 27109  1  1
 28110  1  0
 28111  1  0
 29112  1  0
 29113  1  0
 30114  1  0
 30115  1  0
 31116  1  0
 31117  1  0
 32118  1  0
 32119  1  0
 33120  1  0
 33121  1  0
 34122  1  0
 34123  1  0
 35124  1  0
 35125  1  0
 36126  1  0
 36127  1  0
 37128  1  0
 37129  1  0
 38130  1  0
 38131  1  0
 39132  1  0
 39133  1  0
 40134  1  0
 40135  1  0
 41136  1  0
 41137  1  0
 42138  1  0
 42139  1  0
 43140  1  0
 43141  1  0
 44142  1  0
 44143  1  0
 44144  1  0
 48145  1  0
 49146  1  0
 50147  1  0
 51148  1  0
 54149  1  0
M  CHG  1  45   1
M  END
$$$$
PHOSPHATIDYLCHOLINE TRANSFER PROTEIN
     RDKit          3D

149148  0  0  0  0  0  0  0  0999 V2000
   -5.1668   -1.0867   -0.0551 C   0  0  0  0  0  0  0  0  0  0  0  0
   -5.4428   -0.5018    1.3875 C   0  0  1  0  0  0  0  0  0  0  0  0
   -5.0107   -1.6165    2.3114 C   0  0  0  0  0  0  0  0  0  0  0  0
   -2.7907   -1.2510   -3.9886 C   0  0  0  0  0  0  0  0  0  0  0  0
   -2.9532   -0.3013   -5.1563 C   0  0  0  0  0  0  0  0  0  0  0  0
   -4.4986    1.1685   -4.0708 C   0  0  0  0  0  0  0  0  0  0  0  0
   -3.1304    1.9510   -5.8214 C   0  0  0  0  0  0  0  0  0  0  0  0
   -2.1478    1.4426   -3.7782 C   0  0  0  0  0  0  0  0  0  0  0  0
   -3.1539   -2.9587    2.7801 C   0  0  0  0  0  0  0  0  0  0  0  0
   -1.8160   -2.6339    3.3532 C   0  0  0  0  0  0  0  0  0  0  0  0
   -1.7809   -1.4671    4.3012 C   0  0  0  0  0  0  0  0  0  0  0  0
   -0.3647   -1.1866    4.7590 C   0  0  0  0  0  0  0  0  0  0  0  0
   -0.3138   -0.0825    5.7583 C   0  0  0  0  0  0  0  0  0  0  0  0
    1.0455    0.2924    6.2334 C   0  0  0  0  0  0  0  0  0  0  0  0
    1.8682    0.8713    5.0775 C   0  0  0  0  0  0  0  0  0  0  0  0
    3.2469    1.2166    5.5227 C   0  0  0  0  0  0  0  0  0  0  0  0
    4.0452    1.9040    4.4827 C   0  0  0  0  0  0  0  0  0  0  0  0
    4.2709    1.2047    3.1684 C   0  0  0  0  0  0  0  0  0  0  0  0
    5.1344    2.0920    2.3017 C   0  0  0  0  0  0  0  0  0  0  0  0
    5.4799    1.6349    0.9533 C   0  0  0  0  0  0  0  0  0  0  0  0
    6.2172    0.3486    0.8185 C   0  0  0  0  0  0  0  0  0  0  0  0
    6.5688    0.0794   -0.6149 C   0  0  0  0  0  0  0  0  0  0  0  0
    5.4402   -0.0137   -1.5717 C   0  0  0  0  0  0  0  0  0  0  0  0
    5.9248   -0.2733   -3.0023 C   0  0  0  0  0  0  0  0  0  0  0  0
    4.6956   -0.3534   -3.9171 C   0  0  0  0  0  0  0  0  0  0  0  0
    5.1058   -0.6095   -5.3437 C   0  0  0  0  0  0  0  0  0  0  0  0
   -5.5111    1.7993    1.2851 C   0  0  1  0  0  0  0  0  0  0  0  0
   -4.6972    2.8331    0.5122 C   0  0  0  0  0  0  0  0  0  0  0  0
   -3.5135    3.2685    1.3947 C   0  0  0  0  0  0  0  0  0  0  0  0
   -2.6547    4.1930    0.6194 C   0  0  0  0  0  0  0  0  0  0  0  0
   -1.5612    4.8318    1.3422 C   0  0  0  0  0  0  0  0  0  0  0  0
   -0.5382    4.1995    2.1255 C   0  0  0  0  0  0  0  0  0  0  0  0
    0.4772    3.2372    1.7765 C   0  0  0  0  0  0  0  0  0  0  0  0
    0.3052    1.8700    1.3166 C   0  0  0  0  0  0  0  0  0  0  0  0
   -0.3369    1.5216    0.0254 C   0  0  0  0  0  0  0  0  0  0  0  0
   -0.3508   -0.0060   -0.1036 C   0  0  0  0  0  0  0  0  0  0  0  0
    0.9915   -0.6262    0.0069 C   0  0  0  0  0  0  0  0  0  0  0  0
    0.8686   -2.1691   -0.1612 C   0  0  0  0  0  0  0  0  0  0  0  0
    2.2345   -2.6938    0.0185 C   0  0  0  0  0  0  0  0  0  0  0  0
    2.5351   -4.1218    0.0265 C   0  0  0  0  0  0  0  0  0  0  0  0
    2.3071   -5.0135   -1.1230 C   0  0  0  0  0  0  0  0  0  0  0  0
    0.9055   -5.1923   -1.5710 C   0  0  0  0  0  0  0  0  0  0  0  0
    0.9871   -6.2241   -2.7314 C   0  0  0  0  0  0  0  0  0  0  0  0
   -0.3850   -6.4755   -3.2682 C   0  0  0  0  0  0  0  0  0  0  0  0
   -3.2107    1.0448   -4.7087 N   0  0  2  0  0  0  0  0  0  0  0  0
   -4.7509    0.6640    1.5200 O   0  0  0  0  0  0  0  0  0  0  0  0
   -3.7057   -1.9694    2.0395 O   0  0  0  0  0  0  0  0  0  0  0  0
   -3.0090   -4.1426    1.9704 O   0  0  0  0  0  0  0  0  0  0  0  0
   -5.7315    2.4625    2.5484 O   0  0  0  0  0  0  0  0  0  0  0  0
   -3.3439   -3.4863   -2.6617 O   0  0  0  0  0  0  0  0  0  0  0  0
   -5.0526   -3.0172   -1.9409 O   0  0  0  0  0  0  0  0  0  0  0  0
   -3.8444   -1.3359   -0.2386 O   0  0  0  0  0  0  0  0  0  0  0  0
   -3.9288   -1.3034   -3.1833 O   0  0  0  0  0  0  0  0  0  0  0  0
   -3.6464   -2.1046   -1.7499 P   0  0  0  0  0  0  0  0  0  0  0  0
   -5.5553   -0.4156   -0.8131 H   0  0  0  0  0  0  0  0  0  0  0  0
   -5.7369   -2.0357   -0.0775 H   0  0  0  0  0  0  0  0  0  0  0  0
   -6.5085   -0.3548    1.3423 H   0  0  0  0  0  0  0  0  0  0  0  0
   -5.6472   -2.5081    2.1083 H   0  0  0  0  0  0  0  0  0  0  0  0
   -5.1686   -1.3611    3.3781 H   0  0  0  0  0  0  0  0  0  0  0  0
   -2.5363   -2.2510   -4.4171 H   0  0  0  0  0  0  0  0  0  0  0  0
   -1.9054   -0.9489   -3.4034 H   0  0  0  0  0  0  0  0  0  0  0  0
   -3.7563   -0.5991   -5.8312 H   0  0  0  0  0  0  0  0  0  0  0  0
   -1.9906   -0.2963   -5.7254 H   0  0  0  0  0  0  0  0  0  0  0  0
   -4.4792    0.9703   -2.9916 H   0  0  0  0  0  0  0  0  0  0  0  0
   -4.8352    2.2261   -4.2219 H   0  0  0  0  0  0  0  0  0  0  0  0
   -5.2226    0.5237   -4.5984 H   0  0  0  0  0  0  0  0  0  0  0  0
   -3.4523    1.4666   -6.7705 H   0  0  0  0  0  0  0  0  0  0  0  0
   -2.1003    2.3471   -5.9768 H   0  0  0  0  0  0  0  0  0  0  0  0
   -3.7694    2.8545   -5.6125 H   0  0  0  0  0  0  0  0  0  0  0  0
   -2.2298    2.5594   -3.6377 H   0  0  0  0  0  0  0  0  0  0  0  0
   -1.1745    1.2396   -4.2478 H   0  0  0  0  0  0  0  0  0  0  0  0
   -2.2990    0.9865   -2.7879 H   0  0  0  0  0  0  0  0  0  0  0  0
   -3.8322   -3.3042    3.5798 H   0  0  0  0  0  0  0  0  0  0  0  0
   -1.5010   -3.5490    3.9381 H   0  0  0  0  0  0  0  0  0  0  0  0
   -1.0478   -2.5493    2.5587 H   0  0  0  0  0  0  0  0  0  0  0  0
   -2.3425   -1.7762    5.2329 H   0  0  0  0  0  0  0  0  0  0  0  0
   -2.3036   -0.5733    3.9432 H   0  0  0  0  0  0  0  0  0  0  0  0
    0.0359   -2.1059    5.2704 H   0  0  0  0  0  0  0  0  0  0  0  0
    0.2271   -0.9836    3.8621 H   0  0  0  0  0  0  0  0  0  0  0  0
   -0.8052    0.8226    5.3341 H   0  0  0  0  0  0  0  0  0  0  0  0
   -0.9385   -0.3734    6.6360 H   0  0  0  0  0  0  0  0  0  0  0  0
    1.6015   -0.5049    6.7476 H   0  0  0  0  0  0  0  0  0  0  0  0
    0.9524    1.1411    6.9705 H   0  0  0  0  0  0  0  0  0  0  0  0
    1.9375    0.0455    4.3417 H   0  0  0  0  0  0  0  0  0  0  0  0
    1.3661    1.7220    4.6211 H   0  0  0  0  0  0  0  0  0  0  0  0
    3.1308    1.9631    6.3717 H   0  0  0  0  0  0  0  0  0  0  0  0
    3.7830    0.3412    5.9719 H   0  0  0  0  0  0  0  0  0  0  0  0
    5.0491    2.2544    4.8898 H   0  0  0  0  0  0  0  0  0  0  0  0
    3.5660    2.9000    4.2098 H   0  0  0  0  0  0  0  0  0  0  0  0
    4.8126    0.2624    3.3715 H   0  0  0  0  0  0  0  0  0  0  0  0
    3.3179    0.9496    2.7043 H   0  0  0  0  0  0  0  0  0  0  0  0
    4.6150    3.0848    2.2201 H   0  0  0  0  0  0  0  0  0  0  0  0
    6.0859    2.3059    2.8747 H   0  0  0  0  0  0  0  0  0  0  0  0
    4.5940    1.6695    0.2376 H   0  0  0  0  0  0  0  0  0  0  0  0
    6.1588    2.4234    0.5031 H   0  0  0  0  0  0  0  0  0  0  0  0
    5.6456   -0.5343    1.1741 H   0  0  0  0  0  0  0  0  0  0  0  0
    7.1837    0.4647    1.3587 H   0  0  0  0  0  0  0  0  0  0  0  0
    7.1288   -0.8917   -0.6384 H   0  0  0  0  0  0  0  0  0  0  0  0
    7.3369    0.8221   -0.9782 H   0  0  0  0  0  0  0  0  0  0  0  0
    4.8144    0.9036   -1.5974 H   0  0  0  0  0  0  0  0  0  0  0  0
    4.7648   -0.8487   -1.3485 H   0  0  0  0  0  0  0  0  0  0  0  0
    6.4199   -1.2528   -3.0324 H   0  0  0  0  0  0  0  0  0  0  0  0
    6.6177    0.5090   -3.3626 H   0  0  0  0  0  0  0  0  0  0  0  0
    4.1548    0.6334   -3.8906 H   0  0  0  0  0  0  0  0  0  0  0  0
    4.0273   -1.1683   -3.5998 H   0  0  0  0  0  0  0  0  0  0  0  0
    6.0346   -1.2191   -5.3853 H   0  0  0  0  0  0  0  0  0  0  0  0
    4.2750   -1.1537   -5.8493 H   0  0  0  0  0  0  0  0  0  0  0  0
    5.2253    0.3647   -5.8681 H   0  0  0  0  0  0  0  0  0  0  0  0
   -6.4705    1.5919    0.9043 H   0  0  0  0  0  0  0  0  0  0  0  0
   -4.3494    2.3552   -0.4021 H   0  0  0  0  0  0  0  0  0  0  0  0
   -5.3012    3.7186    0.3019 H   0  0  0  0  0  0  0  0  0  0  0  0
   -3.0608    2.3286    1.7304 H   0  0  0  0  0  0  0  0  0  0  0  0
   -3.8986    3.7992    2.2842 H   0  0  0  0  0  0  0  0  0  0  0  0
   -3.3727    5.0427    0.3093 H   0  0  0  0  0  0  0  0  0  0  0  0
   -2.3534    3.8102   -0.3797 H   0  0  0  0  0  0  0  0  0  0  0  0
   -1.0127    5.4822    0.5487 H   0  0  0  0  0  0  0  0  0  0  0  0
   -2.0273    5.7054    1.9529 H   0  0  0  0  0  0  0  0  0  0  0  0
   -0.9809    3.9086    3.1961 H   0  0  0  0  0  0  0  0  0  0  0  0
    0.0879    5.1062    2.5539 H   0  0  0  0  0  0  0  0  0  0  0  0
    1.2493    3.7623    1.0832 H   0  0  0  0  0  0  0  0  0  0  0  0
    1.1601    3.1657    2.7213 H   0  0  0  0  0  0  0  0  0  0  0  0
   -0.1379    1.1760    2.0892 H   0  0  0  0  0  0  0  0  0  0  0  0
    1.3666    1.4104    1.2268 H   0  0  0  0  0  0  0  0  0  0  0  0
   -1.4458    1.7503    0.0646 H   0  0  0  0  0  0  0  0  0  0  0  0
    0.0558    2.0070   -0.8675 H   0  0  0  0  0  0  0  0  0  0  0  0
   -0.7523   -0.2830   -1.1173 H   0  0  0  0  0  0  0  0  0  0  0  0
   -1.0268   -0.4531    0.6515 H   0  0  0  0  0  0  0  0  0  0  0  0
    1.7561   -0.3146   -0.6898 H   0  0  0  0  0  0  0  0  0  0  0  0
    1.3732   -0.5154    1.0400 H   0  0  0  0  0  0  0  0  0  0  0  0
    0.1120   -2.5990    0.4696 H   0  0  0  0  0  0  0  0  0  0  0  0
    0.5518   -2.3006   -1.2341 H   0  0  0  0  0  0  0  0  0  0  0  0
    2.6921   -2.2711    0.9884 H   0  0  0  0  0  0  0  0  0  0  0  0
    2.9403   -2.2283   -0.7603 H   0  0  0  0  0  0  0  0  0  0  0  0
    3.6669   -4.1833    0.2945 H   0  0  0  0  0  0  0  0  0  0  0  0
    2.1246   -4.6296    0.9825 H   0  0  0  0  0  0  0  0  0  0  0  0
    2.7690   -6.0419   -0.8829 H   0  0  0  0  0  0  0  0  0  0  0  0
    2.9527   -4.6864   -2.0173 H   0  0  0  0  0  0  0  0  0  0  0  0
    0.4562   -4.2843   -1.9601 H   0  0  0  0  0  0  0  0  0  0  0  0
    0.2488   -5.6020   -0.7808 H   0  0  0  0  0  0  0  0  0  0  0  0
    1.4640   -7.1320   -2.3158 H   0  0  0  0  0  0  0  0  0  0  0  0
    1.6241   -5.8159   -3.5379 H   0  0  0  0  0  0  0  0  0  0  0  0
   -0.7051   -5.6278   -3.9108 H   0  0  0  0  0  0  0  0  0  0  0  0
   -0.3620   -7.4310   -3.8363 H   0  0  0  0  0  0  0  0  0  0  0  0
   -1.0911   -6.6089   -2.4297 H   0  0  0  0  0  0  0  0  0  0  0  0
   -2.2042   -4.6002    2.2659 H   0  0  0  0  0  0  0  0  0  0  0  0
   -6.1688    3.3141    2.2754 H   0  0  0  0  0  0  0  0  0  0  0  0
   -2.7294   -4.0438   -2.0790 H   0  0  0  0  0  0  0  0  0  0  0  0
   -5.8572   -2.4611   -2.0453 H   0  0  0  0  0  0  0  0  0  0  0  0
   -2.9926   -0.9181   -1.3340 H   0  0  0  0  0  0  0  0  0  0  0  0
  1  2  1  0
  1 52  1  0
  2  3  1  0
  2 46  1  0
  3 47  1  0
  4  5  1  0
  4 53  1  0
 45  5  1  6
  6 45  1  0
  7 45  1  0
  8 45  1  0
  9 10  1  0
  9 47  1  0
  9 48  1  0
 10 11  1  0
 11 12  1  0
 12 13  1  0
 13 14  1  0
 14 15  1  0
 15 16  1  0
 16 17  1  0
 17 18  1  0
 18 19  1  0
 19 20  1  0
 20 21  1  0
 21 22  1  0
 22 23  1  0
 23 24  1  0
 24 25  1  0
 25 26  1  0
 27 28  1  0
 27 46  1  0
 27 49  1  0
 28 29  1  0
 29 30  1  0
 30 31  1  0
 31 32  1  0
 32 33  1  0
 33 34  1  0
 34 35  1  0
 35 36  1  0
 36 37  1  0
 37 38  1  0
 38 39  1  0
 39 40  1  0
 40 41  1  0
 41 42  1  0
 42 43  1  0
 43 44  1  0
 50 54  1  0
 51 54  1  0
 52 54  1  0
 53 54  1  0
  1 55  1  0
  1 56  1  0
  2 57  1  6
  3 58  1  0
  3 59  1  0
  4 60  1  0
  4 61  1  0
  5 62  1  0
  5 63  1  0
  6 64  1  0
  6 65  1  0
  6 66  1  0
  7 67  1  0
  7 68  1  0
  7 69  1  0
  8 70  1  0
  8 71  1  0
  8 72  1  0
  9 73  1  0
 10 74  1  0
 10 75  1  0
 11 76  1  0
 11 77  1  0
 12 78  1  0
 12 79  1  0
 13 80  1  0
 13 81  1  0
 14 82  1  0
 14 83  1  0
 15 84  1  0
 15 85  1  0
 16 86  1  0
 16 87  1  0
 17 88  1  0
 17 89  1  0
 18 90  1  0
 18 91  1  0
 19 92  1  0
 19 93  1  0
 20 94  1  0
 20 95  1  0
 21 96  1  0
 21 97  1  0
 22 98  1  0
 22 99  1  0
 23100  1  0
 23101  1  0
 24102  1  0
 24103  1  0
 25104  1  0
 25105  1  0
 26106  1  0
 26107  1  0
 26108  1  0
 27109  1  6
 28110  1  0
 28111  1  0
 29112  1  0
 29113  1  0
 30114  1  0
 30115  1  0
 31116  1  0
 31117  1  0
 32118  1  0
 32119  1  0
 33120  1  0
 33121  1  0
 34122  1  0
 34123  1  0
 35124  1  0
 35125  1  0
 36126  1  0
 36127  1  0
 37128  1  0
 37129  1  0
 38130  1  0
 38131  1  0
 39132  1  0
 39133  1  0
 40134  1  0
 40135  1  0
 41136  1  0
 41137  1  0
 42138  1  0
 42139  1  0
 43140  1  0
 43141  1  0
 44142  1  0
 44143  1  0
 44144  1  0
 48145  1  0
 49146  1  0
 50147  1  0
 51148  1  0
 54149  1  0
M  CHG  1  45   1
M  END
$$$$
PHOSPHATIDYLCHOLINE TRANSFER PROTEIN
     RDKit          3D

149148  0  0  0  0  0  0  0  0999 V2000
    1.2138   -2.8777    4.0600 C   0  0  0  0  0  0  0  0  0  0  0  0
    2.4020   -1.9796    4.1492 C   0  0  1  0  0  0  0  0  0  0  0  0
    3.4106   -2.4574    3.0542 C   0  0  0  0  0  0  0  0  0  0  0  0
   -1.9548   -4.4345    0.8888 C   0  0  0  0  0  0  0  0  0  0  0  0
   -2.7166   -5.3086   -0.0721 C   0  0  0  0  0  0  0  0  0  0  0  0
   -0.7115   -6.2917   -0.9565 C   0  0  0  0  0  0  0  0  0  0  0  0
   -1.8529   -4.6156   -2.1942 C   0  0  0  0  0  0  0  0  0  0  0  0
   -2.7835   -6.7471   -1.8910 C   0  0  0  0  0  0  0  0  0  0  0  0
    3.4581   -2.2624    0.6959 C   0  0  0  0  0  0  0  0  0  0  0  0
    2.3788   -2.4298   -0.3358 C   0  0  0  0  0  0  0  0  0  0  0  0
    2.8493   -2.7476   -1.7137 C   0  0  0  0  0  0  0  0  0  0  0  0
    1.7200   -2.8400   -2.7179 C   0  0  0  0  0  0  0  0  0  0  0  0
    1.0217   -1.5051   -2.8010 C   0  0  0  0  0  0  0  0  0  0  0  0
   -0.1204   -1.4994   -3.8384 C   0  0  0  0  0  0  0  0  0  0  0  0
   -0.6484   -0.0930   -3.7904 C   0  0  0  0  0  0  0  0  0  0  0  0
   -1.7437    0.2942   -4.6542 C   0  0  0  0  0  0  0  0  0  0  0  0
   -3.0694   -0.3192   -4.6522 C   0  0  0  0  0  0  0  0  0  0  0  0
   -3.9181   -0.2622   -3.4304 C   0  0  0  0  0  0  0  0  0  0  0  0
   -3.4723   -0.9063   -2.1919 C   0  0  0  0  0  0  0  0  0  0  0  0
   -4.5581   -0.6759   -1.0999 C   0  0  0  0  0  0  0  0  0  0  0  0
   -4.0314   -1.3733    0.1077 C   0  0  0  0  0  0  0  0  0  0  0  0
   -4.8203   -1.2743    1.3420 C   0  0  0  0  0  0  0  0  0  0  0  0
   -6.1837   -1.7819    1.4667 C   0  0  0  0  0  0  0  0  0  0  0  0
   -7.2813   -1.2492    0.6359 C   0  0  0  0  0  0  0  0  0  0  0  0
   -7.4434    0.2614    0.8196 C   0  0  0  0  0  0  0  0  0  0  0  0
   -8.5936    0.6911   -0.0805 C   0  0  0  0  0  0  0  0  0  0  0  0
    2.5180    0.1775    4.9851 C   0  0  1  0  0  0  0  0  0  0  0  0
    1.4849    1.2662    5.0379 C   0  0  0  0  0  0  0  0  0  0  0  0
    1.6769    2.2183    6.1768 C   0  0  0  0  0  0  0  0  0  0  0  0
    0.6102    3.3186    6.0613 C   0  0  0  0  0  0  0  0  0  0  0  0
    0.8101    4.0465    4.7374 C   0  0  0  0  0  0  0  0  0  0  0  0
    2.1639    4.6838    4.6644 C   0  0  0  0  0  0  0  0  0  0  0  0
    2.3480    5.3150    3.2813 C   0  0  0  0  0  0  0  0  0  0  0  0
    3.6812    5.9931    3.2020 C   0  0  0  0  0  0  0  0  0  0  0  0
    3.9479    6.5526    1.8259 C   0  0  0  0  0  0  0  0  0  0  0  0
    3.9934    5.4601    0.7914 C   0  0  0  0  0  0  0  0  0  0  0  0
    4.2945    6.0793   -0.5638 C   0  0  0  0  0  0  0  0  0  0  0  0
    4.3852    4.9917   -1.6249 C   0  0  0  0  0  0  0  0  0  0  0  0
    3.1750    4.1952   -1.8343 C   0  0  0  0  0  0  0  0  0  0  0  0
    1.9240    4.7651   -2.3612 C   0  0  0  0  0  0  0  0  0  0  0  0
    1.8854    5.2577   -3.7463 C   0  0  0  0  0  0  0  0  0  0  0  0
    2.6913    6.3707   -4.2414 C   0  0  0  0  0  0  0  0  0  0  0  0
    2.4705    7.7241   -3.6561 C   0  0  0  0  0  0  0  0  0  0  0  0
    1.0176    8.1887   -3.8919 C   0  0  0  0  0  0  0  0  0  0  0  0
   -1.9916   -5.6827   -1.2531 N   0  0  2  0  0  0  0  0  0  0  0  0
    2.2307   -0.6566    3.9063 O   0  0  0  0  0  0  0  0  0  0  0  0
    2.8759   -1.9823    1.8859 O   0  0  0  0  0  0  0  0  0  0  0  0
    4.2225   -1.0663    0.2905 O   0  0  0  0  0  0  0  0  0  0  0  0
    3.7950    0.7873    4.6992 O   0  0  0  0  0  0  0  0  0  0  0  0
    0.7344   -5.4355    1.9364 O   0  0  0  0  0  0  0  0  0  0  0  0
   -0.0634   -5.8038    3.8198 O   0  0  0  0  0  0  0  0  0  0  0  0
    0.6028   -3.0121    2.8505 O   0  0  0  0  0  0  0  0  0  0  0  0
   -0.8163   -5.0466    1.3403 O   0  0  0  0  0  0  0  0  0  0  0  0
   -0.3356   -4.4467    2.8243 P   0  0  0  0  0  0  0  0  0  0  0  0
    0.4287   -2.4885    4.7929 H   0  0  0  0  0  0  0  0  0  0  0  0
    1.4791   -3.8915    4.4876 H   0  0  0  0  0  0  0  0  0  0  0  0
    2.8823   -2.1140    5.1711 H   0  0  0  0  0  0  0  0  0  0  0  0
    3.5476   -3.5376    3.1307 H   0  0  0  0  0  0  0  0  0  0  0  0
    4.3564   -1.9429    3.3102 H   0  0  0  0  0  0  0  0  0  0  0  0
   -2.6021   -4.2346    1.7637 H   0  0  0  0  0  0  0  0  0  0  0  0
   -1.6704   -3.4657    0.4311 H   0  0  0  0  0  0  0  0  0  0  0  0
   -3.0297   -6.2554    0.4374 H   0  0  0  0  0  0  0  0  0  0  0  0
   -3.6565   -4.8255   -0.3944 H   0  0  0  0  0  0  0  0  0  0  0  0
    0.0252   -5.4999   -0.7779 H   0  0  0  0  0  0  0  0  0  0  0  0
   -0.8401   -6.9183   -0.0427 H   0  0  0  0  0  0  0  0  0  0  0  0
   -0.4404   -6.9255   -1.8343 H   0  0  0  0  0  0  0  0  0  0  0  0
   -0.9793   -4.8583   -2.8394 H   0  0  0  0  0  0  0  0  0  0  0  0
   -1.6243   -3.6345   -1.7134 H   0  0  0  0  0  0  0  0  0  0  0  0
   -2.7505   -4.4980   -2.8325 H   0  0  0  0  0  0  0  0  0  0  0  0
   -2.6436   -7.7003   -1.3414 H   0  0  0  0  0  0  0  0  0  0  0  0
   -3.8548   -6.4837   -1.8222 H   0  0  0  0  0  0  0  0  0  0  0  0
   -2.4356   -6.9008   -2.9371 H   0  0  0  0  0  0  0  0  0  0  0  0
    4.2392   -2.9996    0.6911 H   0  0  0  0  0  0  0  0  0  0  0  0
    1.6189   -3.1779   -0.0243 H   0  0  0  0  0  0  0  0  0  0  0  0
    1.8361   -1.4325   -0.3406 H   0  0  0  0  0  0  0  0  0  0  0  0
    3.5255   -3.6077   -1.7796 H   0  0  0  0  0  0  0  0  0  0  0  0
    3.4637   -1.8611   -2.0572 H   0  0  0  0  0  0  0  0  0  0  0  0
    1.0514   -3.6579   -2.3924 H   0  0  0  0  0  0  0  0  0  0  0  0
    2.1877   -3.1082   -3.6938 H   0  0  0  0  0  0  0  0  0  0  0  0
    0.5638   -1.3265   -1.7841 H   0  0  0  0  0  0  0  0  0  0  0  0
    1.7674   -0.7306   -2.9958 H   0  0  0  0  0  0  0  0  0  0  0  0
   -0.7962   -2.2873   -3.5403 H   0  0  0  0  0  0  0  0  0  0  0  0
    0.3772   -1.6380   -4.8329 H   0  0  0  0  0  0  0  0  0  0  0  0
    0.2856    0.5172   -4.1210 H   0  0  0  0  0  0  0  0  0  0  0  0
   -0.7208    0.2173   -2.7347 H   0  0  0  0  0  0  0  0  0  0  0  0
   -1.9341    1.4139   -4.4533 H   0  0  0  0  0  0  0  0  0  0  0  0
   -1.3497    0.3757   -5.7303 H   0  0  0  0  0  0  0  0  0  0  0  0
   -3.1021   -1.3416   -5.1242 H   0  0  0  0  0  0  0  0  0  0  0  0
   -3.6833    0.2682   -5.4237 H   0  0  0  0  0  0  0  0  0  0  0  0
   -4.2286    0.8007   -3.2462 H   0  0  0  0  0  0  0  0  0  0  0  0
   -4.9031   -0.7625   -3.7190 H   0  0  0  0  0  0  0  0  0  0  0  0
   -3.4113   -2.0114   -2.3054 H   0  0  0  0  0  0  0  0  0  0  0  0
   -2.5571   -0.5876   -1.7107 H   0  0  0  0  0  0  0  0  0  0  0  0
   -5.5073   -1.0125   -1.5009 H   0  0  0  0  0  0  0  0  0  0  0  0
   -4.5670    0.4101   -0.9482 H   0  0  0  0  0  0  0  0  0  0  0  0
   -2.9787   -0.9577    0.2787 H   0  0  0  0  0  0  0  0  0  0  0  0
   -3.7873   -2.4674   -0.1407 H   0  0  0  0  0  0  0  0  0  0  0  0
   -4.1976   -1.7945    2.1639 H   0  0  0  0  0  0  0  0  0  0  0  0
   -4.7783   -0.1837    1.7166 H   0  0  0  0  0  0  0  0  0  0  0  0
   -6.4966   -1.5995    2.5531 H   0  0  0  0  0  0  0  0  0  0  0  0
   -6.1533   -2.9153    1.3556 H   0  0  0  0  0  0  0  0  0  0  0  0
   -7.3444   -1.4853   -0.4059 H   0  0  0  0  0  0  0  0  0  0  0  0
   -8.2709   -1.6772    1.0722 H   0  0  0  0  0  0  0  0  0  0  0  0
   -7.6575    0.4991    1.8733 H   0  0  0  0  0  0  0  0  0  0  0  0
   -6.5219    0.7334    0.4764 H   0  0  0  0  0  0  0  0  0  0  0  0
   -8.7621    1.7938   -0.0098 H   0  0  0  0  0  0  0  0  0  0  0  0
   -8.3705    0.4752   -1.1367 H   0  0  0  0  0  0  0  0  0  0  0  0
   -9.5391    0.1931    0.2124 H   0  0  0  0  0  0  0  0  0  0  0  0
    2.6889   -0.3817    5.8960 H   0  0  0  0  0  0  0  0  0  0  0  0
    1.4992    1.7968    4.0501 H   0  0  0  0  0  0  0  0  0  0  0  0
    0.4729    0.7895    5.0786 H   0  0  0  0  0  0  0  0  0  0  0  0
    1.4259    1.7128    7.1471 H   0  0  0  0  0  0  0  0  0  0  0  0
    2.6774    2.6445    6.2760 H   0  0  0  0  0  0  0  0  0  0  0  0
    0.6781    4.0280    6.8898 H   0  0  0  0  0  0  0  0  0  0  0  0
   -0.3736    2.8491    6.0230 H   0  0  0  0  0  0  0  0  0  0  0  0
    0.5256    3.4590    3.8785 H   0  0  0  0  0  0  0  0  0  0  0  0
    0.0722    4.9132    4.7537 H   0  0  0  0  0  0  0  0  0  0  0  0
    2.9801    3.9784    4.8784 H   0  0  0  0  0  0  0  0  0  0  0  0
    2.2089    5.4929    5.4514 H   0  0  0  0  0  0  0  0  0  0  0  0
    2.2344    4.5033    2.5557 H   0  0  0  0  0  0  0  0  0  0  0  0
    1.5249    6.0505    3.1431 H   0  0  0  0  0  0  0  0  0  0  0  0
    4.4792    5.2843    3.4567 H   0  0  0  0  0  0  0  0  0  0  0  0
    3.6917    6.7982    3.9743 H   0  0  0  0  0  0  0  0  0  0  0  0
    3.1747    7.3253    1.5534 H   0  0  0  0  0  0  0  0  0  0  0  0
    4.9109    7.1026    1.8865 H   0  0  0  0  0  0  0  0  0  0  0  0
    4.8620    4.7935    1.0851 H   0  0  0  0  0  0  0  0  0  0  0  0
    3.1079    4.8253    0.7715 H   0  0  0  0  0  0  0  0  0  0  0  0
    5.3090    6.5119   -0.4768 H   0  0  0  0  0  0  0  0  0  0  0  0
    3.6032    6.8904   -0.8050 H   0  0  0  0  0  0  0  0  0  0  0  0
    4.8377    5.4151   -2.5105 H   0  0  0  0  0  0  0  0  0  0  0  0
    5.1582    4.2691   -1.1654 H   0  0  0  0  0  0  0  0  0  0  0  0
    2.9421    3.5386   -0.9157 H   0  0  0  0  0  0  0  0  0  0  0  0
    3.4708    3.3713   -2.5791 H   0  0  0  0  0  0  0  0  0  0  0  0
    1.1603    3.9162   -2.3177 H   0  0  0  0  0  0  0  0  0  0  0  0
    1.4788    5.4899   -1.6189 H   0  0  0  0  0  0  0  0  0  0  0  0
    0.7923    5.3748   -4.1050 H   0  0  0  0  0  0  0  0  0  0  0  0
    2.1850    4.3523   -4.3946 H   0  0  0  0  0  0  0  0  0  0  0  0
    2.3643    6.5050   -5.3490 H   0  0  0  0  0  0  0  0  0  0  0  0
    3.7624    6.1045   -4.3836 H   0  0  0  0  0  0  0  0  0  0  0  0
    2.6585    7.8814   -2.6125 H   0  0  0  0  0  0  0  0  0  0  0  0
    3.1094    8.4286   -4.2513 H   0  0  0  0  0  0  0  0  0  0  0  0
    0.9526    8.4295   -4.9770 H   0  0  0  0  0  0  0  0  0  0  0  0
    0.3245    7.3905   -3.6095 H   0  0  0  0  0  0  0  0  0  0  0  0
    0.8390    9.0937   -3.2727 H   0  0  0  0  0  0  0  0  0  0  0  0
    4.6959   -0.7443    1.1046 H   0  0  0  0  0  0  0  0  0  0  0  0
    4.1485    1.1694    5.5287 H   0  0  0  0  0  0  0  0  0  0  0  0
    1.6621   -5.1401    1.9931 H   0  0  0  0  0  0  0  0  0  0  0  0
    0.6364   -5.6423    4.4608 H   0  0  0  0  0  0  0  0  0  0  0  0
   -1.4077   -5.3045    3.0804 H   0  0  0  0  0  0  0  0  0  0  0  0
  1  2  1  0
  1 52  1  0
  2  3  1  0
  2 46  1  0
  3 47  1  0
  4  5  1  0
  4 53  1  0
 45  5  1  1
  6 45  1  0
  7 45  1  0
  8 45  1  0
  9 10  1  0
  9 47  1  0
  9 48  1  0
 10 11  1  0
 11 12  1  0
 12 13  1  0
 13 14  1  0
 14 15  1  0
 15 16  1  0
 16 17  1  0
 17 18  1  0
 18 19  1  0
 19 20  1  0
 20 21  1  0
 21 22  1  0
 22 23  1  0
 23 24  1  0
 24 25  1  0
 25 26  1  0
 27 28  1  0
 27 46  1  0
 27 49  1  0
 28 29  1  0
 29 30  1  0
 30 31  1  0
 31 32  1  0
 32 33  1  0
 33 34  1  0
 34 35  1  0
 35 36  1  0
 36 37  1  0
 37 38  1  0
 38 39  1  0
 39 40  1  0
 40 41  1  0
 41 42  1  0
 42 43  1  0
 43 44  1  0
 50 54  1  0
 51 54  1  0
 52 54  1  0
 53 54  1  0
  1 55  1  0
  1 56  1  0
  2 57  1  1
  3 58  1  0
  3 59  1  0
  4 60  1  0
  4 61  1  0
  5 62  1  0
  5 63  1  0
  6 64  1  0
  6 65  1  0
  6 66  1  0
  7 67  1  0
  7 68  1  0
  7 69  1  0
  8 70  1  0
  8 71  1  0
  8 72  1  0
  9 73  1  0
 10 74  1  0
 10 75  1  0
 11 76  1  0
 11 77  1  0
 12 78  1  0
 12 79  1  0
 13 80  1  0
 13 81  1  0
 14 82  1  0
 14 83  1  0
 15 84  1  0
 15 85  1  0
 16 86  1  0
 16 87  1  0
 17 88  1  0
 17 89  1  0
 18 90  1  0
 18 91  1  0
 19 92  1  0
 19 93  1  0
 20 94  1  0
 20 95  1  0
 21 96  1  0
 21 97  1  0
 22 98  1  0
 22 99  1  0
 23100  1  0
 23101  1  0
 24102  1  0
 24103  1  0
 25104  1  0
 25105  1  0
 26106  1  0
 26107  1  0
 26108  1  0
 27109  1  1
 28110  1  0
 28111  1  0
 29112  1  0
 29113  1  0
 30114  1  0
 30115  1  0
 31116  1  0
 31117  1  0
 32118  1  0
 32119  1  0
 33120  1  0
 33121  1  0
 34122  1  0
 34123  1  0
 35124  1  0
 35125  1  0
 36126  1  0
 36127  1  0
 37128  1  0
 37129  1  0
 38130  1  0
 38131  1  0
 39132  1  0
 39133  1  0
 40134  1  0
 40135  1  0
 41136  1  0
 41137  1  0
 42138  1  0
 42139  1  0
 43140  1  0
 43141  1  0
 44142  1  0
 44143  1  0
 44144  1  0
 48145  1  0
 49146  1  0
 50147  1  0
 51148  1  0
 54149  1  0
M  CHG  1  45   1
M  END
$$$$
PHOSPHATIDYLCHOLINE TRANSFER PROTEIN
     RDKit          3D

149148  0  0  0  0  0  0  0  0999 V2000
   -0.9487   -3.6082    2.3107 C   0  0  0  0  0  0  0  0  0  0  0  0
    0.4686   -3.2966    1.9412 C   0  0  1  0  0  0  0  0  0  0  0  0
    0.6517   -1.7967    1.8171 C   0  0  0  0  0  0  0  0  0  0  0  0
   -4.3833   -4.9669    4.4517 C   0  0  0  0  0  0  0  0  0  0  0  0
   -5.2316   -4.0941    5.3023 C   0  0  0  0  0  0  0  0  0  0  0  0
   -5.5681   -2.5073    6.9651 C   0  0  0  0  0  0  0  0  0  0  0  0
   -3.9339   -2.1291    5.3090 C   0  0  0  0  0  0  0  0  0  0  0  0
   -3.5880   -3.8024    6.9950 C   0  0  0  0  0  0  0  0  0  0  0  0
   -0.2066   -0.0918    0.4725 C   0  0  0  0  0  0  0  0  0  0  0  0
   -1.2025    0.9317    0.9914 C   0  0  0  0  0  0  0  0  0  0  0  0
   -1.0276    1.1563    2.4751 C   0  0  0  0  0  0  0  0  0  0  0  0
   -1.9937    2.1510    3.0263 C   0  0  0  0  0  0  0  0  0  0  0  0
   -1.7407    2.5266    4.4797 C   0  0  0  0  0  0  0  0  0  0  0  0
   -0.3692    3.2040    4.5884 C   0  0  0  0  0  0  0  0  0  0  0  0
   -0.0052    3.6352    5.9691 C   0  0  0  0  0  0  0  0  0  0  0  0
    1.3107    4.3054    6.1087 C   0  0  0  0  0  0  0  0  0  0  0  0
    1.5949    5.6211    5.5369 C   0  0  0  0  0  0  0  0  0  0  0  0
    1.4039    5.8994    4.0953 C   0  0  0  0  0  0  0  0  0  0  0  0
    1.9292    7.3303    3.7621 C   0  0  0  0  0  0  0  0  0  0  0  0
    1.6411    7.5044    2.2771 C   0  0  0  0  0  0  0  0  0  0  0  0
    2.1155    8.8231    1.7319 C   0  0  0  0  0  0  0  0  0  0  0  0
    1.7847    8.9243    0.2438 C   0  0  0  0  0  0  0  0  0  0  0  0
    0.3163    8.8464   -0.0261 C   0  0  0  0  0  0  0  0  0  0  0  0
    0.0393    8.9157   -1.5052 C   0  0  0  0  0  0  0  0  0  0  0  0
    0.5330   10.1800   -2.1432 C   0  0  0  0  0  0  0  0  0  0  0  0
    0.2410   10.2240   -3.6221 C   0  0  0  0  0  0  0  0  0  0  0  0
    2.4064   -4.5238    2.1556 C   0  0  1  0  0  0  0  0  0  0  0  0
    1.9834   -5.9613    1.8305 C   0  0  0  0  0  0  0  0  0  0  0  0
    3.0051   -6.7906    1.1518 C   0  0  0  0  0  0  0  0  0  0  0  0
    3.6631   -6.2947   -0.0516 C   0  0  0  0  0  0  0  0  0  0  0  0
    2.9780   -5.8035   -1.2277 C   0  0  0  0  0  0  0  0  0  0  0  0
    2.0174   -6.5140   -2.0646 C   0  0  0  0  0  0  0  0  0  0  0  0
    1.5336   -5.5337   -3.1893 C   0  0  0  0  0  0  0  0  0  0  0  0
    2.6051   -5.0836   -4.0883 C   0  0  0  0  0  0  0  0  0  0  0  0
    2.0077   -4.0997   -5.1311 C   0  0  0  0  0  0  0  0  0  0  0  0
    1.3887   -2.9353   -4.4426 C   0  0  0  0  0  0  0  0  0  0  0  0
    0.8545   -1.8414   -5.2921 C   0  0  0  0  0  0  0  0  0  0  0  0
   -0.2346   -2.2876   -6.2648 C   0  0  0  0  0  0  0  0  0  0  0  0
   -0.6406   -1.0515   -6.9840 C   0  0  0  0  0  0  0  0  0  0  0  0
   -1.6951   -1.1238   -7.9766 C   0  0  0  0  0  0  0  0  0  0  0  0
   -1.5662   -1.8570   -9.2361 C   0  0  0  0  0  0  0  0  0  0  0  0
   -1.3515   -3.3173   -9.2153 C   0  0  0  0  0  0  0  0  0  0  0  0
   -1.3520   -3.8693  -10.6709 C   0  0  0  0  0  0  0  0  0  0  0  0
   -1.1496   -5.3536  -10.5880 C   0  0  0  0  0  0  0  0  0  0  0  0
   -4.5372   -3.1563    6.1367 N   0  0  2  0  0  0  0  0  0  0  0  0
    1.3239   -3.9018    2.7992 O   0  0  0  0  0  0  0  0  0  0  0  0
   -0.3288   -1.3323    0.9683 O   0  0  0  0  0  0  0  0  0  0  0  0
   -0.2847   -0.0919   -0.9128 O   0  0  0  0  0  0  0  0  0  0  0  0
    3.4941   -4.4775    2.8927 O   0  0  0  0  0  0  0  0  0  0  0  0
   -3.4709   -4.5004    1.8308 O   0  0  0  0  0  0  0  0  0  0  0  0
   -1.3312   -5.6767    3.8167 O   0  0  0  0  0  0  0  0  0  0  0  0
   -1.1673   -4.9842    2.2889 O   0  0  0  0  0  0  0  0  0  0  0  0
   -3.5616   -4.2899    3.5425 O   0  0  0  0  0  0  0  0  0  0  0  0
   -2.6355   -5.5306    2.8295 P   0  0  0  0  0  0  0  0  0  0  0  0
   -1.1443   -3.2525    3.3306 H   0  0  0  0  0  0  0  0  0  0  0  0
   -1.6858   -3.0925    1.6628 H   0  0  0  0  0  0  0  0  0  0  0  0
    0.7158   -3.6011    0.8555 H   0  0  0  0  0  0  0  0  0  0  0  0
    1.6534   -1.5376    1.4242 H   0  0  0  0  0  0  0  0  0  0  0  0
    0.5056   -1.3620    2.8269 H   0  0  0  0  0  0  0  0  0  0  0  0
   -5.0945   -5.5428    3.7885 H   0  0  0  0  0  0  0  0  0  0  0  0
   -3.8312   -5.7616    4.9892 H   0  0  0  0  0  0  0  0  0  0  0  0
   -5.8432   -4.7784    5.9614 H   0  0  0  0  0  0  0  0  0  0  0  0
   -5.9873   -3.5175    4.7118 H   0  0  0  0  0  0  0  0  0  0  0  0
   -6.2322   -1.8614    6.3622 H   0  0  0  0  0  0  0  0  0  0  0  0
   -6.2525   -3.2850    7.4196 H   0  0  0  0  0  0  0  0  0  0  0  0
   -5.1307   -1.9094    7.7640 H   0  0  0  0  0  0  0  0  0  0  0  0
   -2.8495   -2.2125    5.3865 H   0  0  0  0  0  0  0  0  0  0  0  0
   -4.3036   -2.1112    4.2734 H   0  0  0  0  0  0  0  0  0  0  0  0
   -4.1828   -1.1249    5.7592 H   0  0  0  0  0  0  0  0  0  0  0  0
   -4.0910   -4.2497    7.8929 H   0  0  0  0  0  0  0  0  0  0  0  0
   -3.0268   -4.5773    6.4460 H   0  0  0  0  0  0  0  0  0  0  0  0
   -2.8406   -3.0773    7.3678 H   0  0  0  0  0  0  0  0  0  0  0  0
    0.8072    0.3501    0.7812 H   0  0  0  0  0  0  0  0  0  0  0  0
   -2.2488    0.6521    0.7555 H   0  0  0  0  0  0  0  0  0  0  0  0
   -0.9839    1.8806    0.4683 H   0  0  0  0  0  0  0  0  0  0  0  0
   -1.3195    0.1626    2.9501 H   0  0  0  0  0  0  0  0  0  0  0  0
    0.0194    1.2844    2.7415 H   0  0  0  0  0  0  0  0  0  0  0  0
   -3.0435    1.8033    2.9909 H   0  0  0  0  0  0  0  0  0  0  0  0
   -1.9643    3.1134    2.4558 H   0  0  0  0  0  0  0  0  0  0  0  0
   -2.4959    3.2808    4.7580 H   0  0  0  0  0  0  0  0  0  0  0  0
   -1.8294    1.6756    5.1736 H   0  0  0  0  0  0  0  0  0  0  0  0
   -0.2938    4.0110    3.8789 H   0  0  0  0  0  0  0  0  0  0  0  0
    0.3658    2.3982    4.2556 H   0  0  0  0  0  0  0  0  0  0  0  0
    0.0049    2.7185    6.6356 H   0  0  0  0  0  0  0  0  0  0  0  0
   -0.8493    4.2427    6.3838 H   0  0  0  0  0  0  0  0  0  0  0  0
    1.6038    4.3303    7.2070 H   0  0  0  0  0  0  0  0  0  0  0  0
    2.0952    3.5735    5.7084 H   0  0  0  0  0  0  0  0  0  0  0  0
    2.6847    5.8463    5.7590 H   0  0  0  0  0  0  0  0  0  0  0  0
    1.0804    6.4324    6.1483 H   0  0  0  0  0  0  0  0  0  0  0  0
    0.2930    6.0427    3.8542 H   0  0  0  0  0  0  0  0  0  0  0  0
    1.8771    5.2290    3.4072 H   0  0  0  0  0  0  0  0  0  0  0  0
    3.0036    7.4062    3.9587 H   0  0  0  0  0  0  0  0  0  0  0  0
    1.2850    8.0100    4.3219 H   0  0  0  0  0  0  0  0  0  0  0  0
    0.5333    7.4719    2.1405 H   0  0  0  0  0  0  0  0  0  0  0  0
    2.0340    6.6626    1.6830 H   0  0  0  0  0  0  0  0  0  0  0  0
    3.2185    8.8557    1.7888 H   0  0  0  0  0  0  0  0  0  0  0  0
    1.6491    9.6832    2.2424 H   0  0  0  0  0  0  0  0  0  0  0  0
    2.1610    9.9322   -0.0582 H   0  0  0  0  0  0  0  0  0  0  0  0
    2.3178    8.1702   -0.3411 H   0  0  0  0  0  0  0  0  0  0  0  0
   -0.1339    7.9088    0.3273 H   0  0  0  0  0  0  0  0  0  0  0  0
   -0.2194    9.6888    0.4742 H   0  0  0  0  0  0  0  0  0  0  0  0
    0.4861    8.0246   -2.0037 H   0  0  0  0  0  0  0  0  0  0  0  0
   -1.0813    8.8409   -1.6244 H   0  0  0  0  0  0  0  0  0  0  0  0
    1.6289   10.2907   -1.9894 H   0  0  0  0  0  0  0  0  0  0  0  0
    0.0300   11.0510   -1.6363 H   0  0  0  0  0  0  0  0  0  0  0  0
    0.0987    9.2207   -4.0649 H   0  0  0  0  0  0  0  0  0  0  0  0
   -0.7035   10.8080   -3.7808 H   0  0  0  0  0  0  0  0  0  0  0  0
    1.0761   10.7575   -4.1231 H   0  0  0  0  0  0  0  0  0  0  0  0
    2.4895   -4.0146    1.1554 H   0  0  0  0  0  0  0  0  0  0  0  0
    1.0858   -5.9671    1.1714 H   0  0  0  0  0  0  0  0  0  0  0  0
    1.6361   -6.3747    2.8016 H   0  0  0  0  0  0  0  0  0  0  0  0
    2.6574   -7.8516    0.9913 H   0  0  0  0  0  0  0  0  0  0  0  0
    3.8095   -6.9608    1.9456 H   0  0  0  0  0  0  0  0  0  0  0  0
    4.5006   -5.5510    0.2392 H   0  0  0  0  0  0  0  0  0  0  0  0
    4.3387   -7.1544   -0.4258 H   0  0  0  0  0  0  0  0  0  0  0  0
    2.5017   -4.7935   -0.9746 H   0  0  0  0  0  0  0  0  0  0  0  0
    3.7826   -5.4066   -1.9913 H   0  0  0  0  0  0  0  0  0  0  0  0
    2.4079   -7.3833   -2.6164 H   0  0  0  0  0  0  0  0  0  0  0  0
    1.0569   -6.8129   -1.6025 H   0  0  0  0  0  0  0  0  0  0  0  0
    1.2336   -4.6426   -2.5590 H   0  0  0  0  0  0  0  0  0  0  0  0
    0.6532   -5.9426   -3.6681 H   0  0  0  0  0  0  0  0  0  0  0  0
    3.0236   -5.9131   -4.6703 H   0  0  0  0  0  0  0  0  0  0  0  0
    3.4774   -4.5763   -3.6234 H   0  0  0  0  0  0  0  0  0  0  0  0
    1.1970   -4.6837   -5.6255 H   0  0  0  0  0  0  0  0  0  0  0  0
    2.7567   -3.8014   -5.8615 H   0  0  0  0  0  0  0  0  0  0  0  0
    0.5300   -3.2735   -3.7681 H   0  0  0  0  0  0  0  0  0  0  0  0
    2.1727   -2.4561   -3.7807 H   0  0  0  0  0  0  0  0  0  0  0  0
    0.3818   -1.0948   -4.5885 H   0  0  0  0  0  0  0  0  0  0  0  0
    1.6769   -1.3188   -5.8524 H   0  0  0  0  0  0  0  0  0  0  0  0
   -1.0863   -2.7033   -5.6642 H   0  0  0  0  0  0  0  0  0  0  0  0
    0.1355   -3.1157   -6.8606 H   0  0  0  0  0  0  0  0  0  0  0  0
   -0.8761   -0.2788   -6.1621 H   0  0  0  0  0  0  0  0  0  0  0  0
    0.2763   -0.5839   -7.4916 H   0  0  0  0  0  0  0  0  0  0  0  0
   -2.0587   -0.0429   -8.2254 H   0  0  0  0  0  0  0  0  0  0  0  0
   -2.6398   -1.5146   -7.4039 H   0  0  0  0  0  0  0  0  0  0  0  0
   -0.7862   -1.3410   -9.9045 H   0  0  0  0  0  0  0  0  0  0  0  0
   -2.5217   -1.6957   -9.8544 H   0  0  0  0  0  0  0  0  0  0  0  0
   -2.0915   -3.8494   -8.6264 H   0  0  0  0  0  0  0  0  0  0  0  0
   -0.3119   -3.5700   -8.8862 H   0  0  0  0  0  0  0  0  0  0  0  0
   -2.3682   -3.6299  -11.0671 H   0  0  0  0  0  0  0  0  0  0  0  0
   -0.6011   -3.3611  -11.2813 H   0  0  0  0  0  0  0  0  0  0  0  0
   -1.8597   -5.8696  -11.2980 H   0  0  0  0  0  0  0  0  0  0  0  0
   -1.3911   -5.7306   -9.5810 H   0  0  0  0  0  0  0  0  0  0  0  0
   -0.1235   -5.6757  -10.8655 H   0  0  0  0  0  0  0  0  0  0  0  0
   -0.9379    0.5491   -1.2425 H   0  0  0  0  0  0  0  0  0  0  0  0
    3.7990   -5.3189    3.2941 H   0  0  0  0  0  0  0  0  0  0  0  0
   -3.2998   -4.8736    0.9095 H   0  0  0  0  0  0  0  0  0  0  0  0
   -1.5682   -5.3544    4.7292 H   0  0  0  0  0  0  0  0  0  0  0  0
   -2.4925   -6.8726    2.3947 H   0  0  0  0  0  0  0  0  0  0  0  0
  1  2  1  0
  1 52  1  0
  2  3  1  0
  2 46  1  0
  3 47  1  0
  4  5  1  0
  4 53  1  0
 45  5  1  6
  6 45  1  0
  7 45  1  0
  8 45  1  0
  9 10  1  0
  9 47  1  0
  9 48  1  0
 10 11  1  0
 11 12  1  0
 12 13  1  0
 13 14  1  0
 14 15  1  0
 15 16  1  0
 16 17  1  0
 17 18  1  0
 18 19  1  0
 19 20  1  0
 20 21  1  0
 21 22  1  0
 22 23  1  0
 23 24  1  0
 24 25  1  0
 25 26  1  0
 27 28  1  0
 27 46  1  0
 27 49  1  0
 28 29  1  0
 29 30  1  0
 30 31  1  0
 31 32  1  0
 32 33  1  0
 33 34  1  0
 34 35  1  0
 35 36  1  0
 36 37  1  0
 37 38  1  0
 38 39  1  0
 39 40  1  0
 40 41  1  0
 41 42  1  0
 42 43  1  0
 43 44  1  0
 50 54  1  0
 51 54  1  0
 52 54  1  0
 53 54  1  0
  1 55  1  0
  1 56  1  0
  2 57  1  6
  3 58  1  0
  3 59  1  0
  4 60  1  0
  4 61  1  0
  5 62  1  0
  5 63  1  0
  6 64  1  0
  6 65  1  0
  6 66  1  0
  7 67  1  0
  7 68  1  0
  7 69  1  0
  8 70  1  0
  8 71  1  0
  8 72  1  0
  9 73  1  0
 10 74  1  0
 10 75  1  0
 11 76  1  0
 11 77  1  0
 12 78  1  0
 12 79  1  0
 13 80  1  0
 13 81  1  0
 14 82  1  0
 14 83  1  0
 15 84  1  0
 15 85  1  0
 16 86  1  0
 16 87  1  0
 17 88  1  0
 17 89  1  0
 18 90  1  0
 18 91  1  0
 19 92  1  0
 19 93  1  0
 20 94  1  0
 20 95  1  0
 21 96  1  0
 21 97  1  0
 22 98  1  0
 22 99  1  0
 23100  1  0
 23101  1  0
 24102  1  0
 24103  1  0
 25104  1  0
 25105  1  0
 26106  1  0
 26107  1  0
 26108  1  0
 27109  1  6
 28110  1  0
 28111  1  0
 29112  1  0
 29113  1  0
 30114  1  0
 30115  1  0
 31116  1  0
 31117  1  0
 32118  1  0
 32119  1  0
 33120  1  0
 33121  1  0
 34122  1  0
 34123  1  0
 35124  1  0
 35125  1  0
 36126  1  0
 36127  1  0
 37128  1  0
 37129  1  0
 38130  1  0
 38131  1  0
 39132  1  0
 39133  1  0
 40134  1  0
 40135  1  0
 41136  1  0
 41137  1  0
 42138  1  0
 42139  1  0
 43140  1  0
 43141  1  0
 44142  1  0
 44143  1  0
 44144  1  0
 48145  1  0
 49146  1  0
 50147  1  0
 51148  1  0
 54149  1  0
M  CHG  1  45   1
M  END
$$$$
PHOSPHATIDYLCHOLINE TRANSFER PROTEIN
     RDKit          3D

149148  0  0  0  0  0  0  0  0999 V2000
    0.9292    1.6260   -2.3499 C   0  0  0  0  0  0  0  0  0  0  0  0
   -0.4367    1.4252   -2.9356 C   0  0  1  0  0  0  0  0  0  0  0  0
   -0.3160    0.5758   -4.1991 C   0  0  0  0  0  0  0  0  0  0  0  0
    3.8850    3.2005   -1.5145 C   0  0  0  0  0  0  0  0  0  0  0  0
    5.0515    4.1589   -1.5445 C   0  0  0  0  0  0  0  0  0  0  0  0
    4.4781    5.5376    0.3401 C   0  0  0  0  0  0  0  0  0  0  0  0
    3.6046    6.0516   -1.8291 C   0  0  0  0  0  0  0  0  0  0  0  0
    5.8794    6.3439   -1.3796 C   0  0  0  0  0  0  0  0  0  0  0  0
    0.2837   -1.4352   -5.1214 C   0  0  0  0  0  0  0  0  0  0  0  0
    0.3084   -2.8971   -4.9049 C   0  0  0  0  0  0  0  0  0  0  0  0
    1.6379   -3.3535   -4.2573 C   0  0  0  0  0  0  0  0  0  0  0  0
    1.5170   -4.8336   -4.1094 C   0  0  0  0  0  0  0  0  0  0  0  0
    2.6836   -5.5838   -3.6597 C   0  0  0  0  0  0  0  0  0  0  0  0
    3.3312   -5.2644   -2.3405 C   0  0  0  0  0  0  0  0  0  0  0  0
    4.4968   -6.2136   -2.1390 C   0  0  0  0  0  0  0  0  0  0  0  0
    5.3168   -6.1013   -0.9413 C   0  0  0  0  0  0  0  0  0  0  0  0
    6.0585   -4.7715   -0.7470 C   0  0  0  0  0  0  0  0  0  0  0  0
    6.9598   -4.9029    0.4560 C   0  0  0  0  0  0  0  0  0  0  0  0
    7.8120   -3.7692    0.7981 C   0  0  0  0  0  0  0  0  0  0  0  0
    7.2633   -2.4741    1.2464 C   0  0  0  0  0  0  0  0  0  0  0  0
    6.5013   -2.5647    2.5524 C   0  0  0  0  0  0  0  0  0  0  0  0
    6.0284   -1.2816    3.1004 C   0  0  0  0  0  0  0  0  0  0  0  0
    5.0574   -0.4781    2.2895 C   0  0  0  0  0  0  0  0  0  0  0  0
    4.8006    0.7858    3.0916 C   0  0  0  0  0  0  0  0  0  0  0  0
    3.8272    1.7428    2.5029 C   0  0  0  0  0  0  0  0  0  0  0  0
    2.4345    1.2145    2.3234 C   0  0  0  0  0  0  0  0  0  0  0  0
   -2.4407    1.7032   -1.8874 C   0  0  1  0  0  0  0  0  0  0  0  0
   -2.8585    1.7603   -0.4863 C   0  0  0  0  0  0  0  0  0  0  0  0
   -1.7506    2.1652    0.4255 C   0  0  0  0  0  0  0  0  0  0  0  0
   -2.3163    2.2532    1.8794 C   0  0  0  0  0  0  0  0  0  0  0  0
   -1.1662    2.5233    2.7636 C   0  0  0  0  0  0  0  0  0  0  0  0
   -1.3231    2.7838    4.1994 C   0  0  0  0  0  0  0  0  0  0  0  0
   -2.1000    1.8022    5.0142 C   0  0  0  0  0  0  0  0  0  0  0  0
   -3.5858    1.8047    4.8086 C   0  0  0  0  0  0  0  0  0  0  0  0
   -4.3230    0.7386    5.5889 C   0  0  0  0  0  0  0  0  0  0  0  0
   -5.8222    0.8372    5.3706 C   0  0  0  0  0  0  0  0  0  0  0  0
   -6.4005    2.1035    5.8875 C   0  0  0  0  0  0  0  0  0  0  0  0
   -7.8827    2.1694    5.5865 C   0  0  0  0  0  0  0  0  0  0  0  0
   -8.1875    2.1992    4.1049 C   0  0  0  0  0  0  0  0  0  0  0  0
   -9.6739    2.2747    3.9513 C   0  0  0  0  0  0  0  0  0  0  0  0
  -10.1314    2.3777    2.4984 C   0  0  0  0  0  0  0  0  0  0  0  0
   -9.5738    3.6348    1.8554 C   0  0  0  0  0  0  0  0  0  0  0  0
  -10.0142    3.8069    0.4262 C   0  0  0  0  0  0  0  0  0  0  0  0
   -9.6027    2.7019   -0.4907 C   0  0  0  0  0  0  0  0  0  0  0  0
    4.7191    5.4861   -1.0865 N   0  0  2  0  0  0  0  0  0  0  0  0
   -1.3502    0.8102   -2.0559 O   0  0  0  0  0  0  0  0  0  0  0  0
    0.3413   -0.6328   -3.9866 O   0  0  0  0  0  0  0  0  0  0  0  0
    1.5828   -1.1972   -5.8050 O   0  0  0  0  0  0  0  0  0  0  0  0
   -3.5171    1.1549   -2.6907 O   0  0  0  0  0  0  0  0  0  0  0  0
    4.0180   -0.2683   -2.9493 O   0  0  0  0  0  0  0  0  0  0  0  0
    3.3183   -0.1016   -0.4599 O   0  0  0  0  0  0  0  0  0  0  0  0
    1.5586    0.4483   -1.9661 O   0  0  0  0  0  0  0  0  0  0  0  0
    4.3795    1.9613   -1.9940 O   0  0  0  0  0  0  0  0  0  0  0  0
    3.2112    0.7806   -1.8897 P   0  0  0  0  0  0  0  0  0  0  0  0
    0.9023    2.4015   -1.5635 H   0  0  0  0  0  0  0  0  0  0  0  0
    1.5710    2.0427   -3.1818 H   0  0  0  0  0  0  0  0  0  0  0  0
   -0.8633    2.3914   -3.2279 H   0  0  0  0  0  0  0  0  0  0  0  0
    0.0943    1.1465   -5.0547 H   0  0  0  0  0  0  0  0  0  0  0  0
   -1.3896    0.3538   -4.4806 H   0  0  0  0  0  0  0  0  0  0  0  0
    3.0943    3.6019   -2.2157 H   0  0  0  0  0  0  0  0  0  0  0  0
    3.4118    3.0891   -0.5312 H   0  0  0  0  0  0  0  0  0  0  0  0
    5.3911    4.2104   -2.6078 H   0  0  0  0  0  0  0  0  0  0  0  0
    5.8413    3.7461   -0.8985 H   0  0  0  0  0  0  0  0  0  0  0  0
    5.4017    5.7741    0.9233 H   0  0  0  0  0  0  0  0  0  0  0  0
    3.6860    6.3103    0.5612 H   0  0  0  0  0  0  0  0  0  0  0  0
    4.0997    4.5572    0.6926 H   0  0  0  0  0  0  0  0  0  0  0  0
    2.6556    5.5312   -1.6303 H   0  0  0  0  0  0  0  0  0  0  0  0
    3.8856    6.0321   -2.9085 H   0  0  0  0  0  0  0  0  0  0  0  0
    3.5131    7.1207   -1.5075 H   0  0  0  0  0  0  0  0  0  0  0  0
    5.6617    7.3189   -0.9099 H   0  0  0  0  0  0  0  0  0  0  0  0
    6.7819    5.8543   -0.9646 H   0  0  0  0  0  0  0  0  0  0  0  0
    5.9566    6.3932   -2.4913 H   0  0  0  0  0  0  0  0  0  0  0  0
   -0.3838   -1.1027   -5.8920 H   0  0  0  0  0  0  0  0  0  0  0  0
   -0.5343   -3.2332   -4.2548 H   0  0  0  0  0  0  0  0  0  0  0  0
    0.3029   -3.3974   -5.8966 H   0  0  0  0  0  0  0  0  0  0  0  0
    2.4116   -3.0314   -4.9678 H   0  0  0  0  0  0  0  0  0  0  0  0
    1.7058   -2.7958   -3.3056 H   0  0  0  0  0  0  0  0  0  0  0  0
    0.5971   -5.0172   -3.4930 H   0  0  0  0  0  0  0  0  0  0  0  0
    1.1987   -5.2066   -5.1336 H   0  0  0  0  0  0  0  0  0  0  0  0
    3.5136   -5.5087   -4.4314 H   0  0  0  0  0  0  0  0  0  0  0  0
    2.4278   -6.6848   -3.7083 H   0  0  0  0  0  0  0  0  0  0  0  0
    3.7095   -4.2315   -2.2880 H   0  0  0  0  0  0  0  0  0  0  0  0
    2.6036   -5.4847   -1.5356 H   0  0  0  0  0  0  0  0  0  0  0  0
    5.1089   -6.2478   -3.0931 H   0  0  0  0  0  0  0  0  0  0  0  0
    4.0077   -7.2405   -2.1266 H   0  0  0  0  0  0  0  0  0  0  0  0
    6.1314   -6.8800   -0.9238 H   0  0  0  0  0  0  0  0  0  0  0  0
    4.6619   -6.2426   -0.0305 H   0  0  0  0  0  0  0  0  0  0  0  0
    5.3158   -4.0061   -0.5597 H   0  0  0  0  0  0  0  0  0  0  0  0
    6.6343   -4.6138   -1.6882 H   0  0  0  0  0  0  0  0  0  0  0  0
    7.6473   -5.7685    0.1957 H   0  0  0  0  0  0  0  0  0  0  0  0
    6.3500   -5.3146    1.2919 H   0  0  0  0  0  0  0  0  0  0  0  0
    8.5832   -4.1301    1.5384 H   0  0  0  0  0  0  0  0  0  0  0  0
    8.4250   -3.5292   -0.1418 H   0  0  0  0  0  0  0  0  0  0  0  0
    6.6700   -1.9578    0.4619 H   0  0  0  0  0  0  0  0  0  0  0  0
    8.1341   -1.8064    1.4612 H   0  0  0  0  0  0  0  0  0  0  0  0
    7.0567   -3.1063    3.3265 H   0  0  0  0  0  0  0  0  0  0  0  0
    5.5920   -3.1975    2.3271 H   0  0  0  0  0  0  0  0  0  0  0  0
    5.5025   -1.4658    4.0914 H   0  0  0  0  0  0  0  0  0  0  0  0
    6.8905   -0.5764    3.3208 H   0  0  0  0  0  0  0  0  0  0  0  0
    5.5097   -0.1653    1.3245 H   0  0  0  0  0  0  0  0  0  0  0  0
    4.1261   -1.0413    2.0620 H   0  0  0  0  0  0  0  0  0  0  0  0
    5.7556    1.3430    3.2562 H   0  0  0  0  0  0  0  0  0  0  0  0
    4.4452    0.5222    4.1229 H   0  0  0  0  0  0  0  0  0  0  0  0
    4.2094    2.2357    1.5700 H   0  0  0  0  0  0  0  0  0  0  0  0
    3.7425    2.5931    3.2345 H   0  0  0  0  0  0  0  0  0  0  0  0
    1.9923    1.7301    1.4590 H   0  0  0  0  0  0  0  0  0  0  0  0
    2.4860    0.1292    2.1365 H   0  0  0  0  0  0  0  0  0  0  0  0
    1.8126    1.4318    3.2222 H   0  0  0  0  0  0  0  0  0  0  0  0
   -2.1917    2.6783   -2.3155 H   0  0  0  0  0  0  0  0  0  0  0  0
   -3.7742    2.4038   -0.3282 H   0  0  0  0  0  0  0  0  0  0  0  0
   -3.1954    0.7174   -0.1478 H   0  0  0  0  0  0  0  0  0  0  0  0
   -1.4285    3.1929    0.1884 H   0  0  0  0  0  0  0  0  0  0  0  0
   -0.9619    1.4052    0.4515 H   0  0  0  0  0  0  0  0  0  0  0  0
   -3.0661    3.0397    1.9061 H   0  0  0  0  0  0  0  0  0  0  0  0
   -2.8266    1.2702    2.0560 H   0  0  0  0  0  0  0  0  0  0  0  0
   -0.4724    1.6107    2.6336 H   0  0  0  0  0  0  0  0  0  0  0  0
   -0.5630    3.3367    2.2465 H   0  0  0  0  0  0  0  0  0  0  0  0
   -1.6612    3.8354    4.4227 H   0  0  0  0  0  0  0  0  0  0  0  0
   -0.2641    2.7613    4.6352 H   0  0  0  0  0  0  0  0  0  0  0  0
   -1.7169    0.7519    4.8016 H   0  0  0  0  0  0  0  0  0  0  0  0
   -1.8434    1.9268    6.1081 H   0  0  0  0  0  0  0  0  0  0  0  0
   -3.8582    1.8667    3.7833 H   0  0  0  0  0  0  0  0  0  0  0  0
   -3.9382    2.7821    5.3135 H   0  0  0  0  0  0  0  0  0  0  0  0
   -3.9961   -0.2432    5.1968 H   0  0  0  0  0  0  0  0  0  0  0  0
   -4.0485    0.7766    6.6597 H   0  0  0  0  0  0  0  0  0  0  0  0
   -6.2766   -0.0211    5.9219 H   0  0  0  0  0  0  0  0  0  0  0  0
   -6.0407    0.6526    4.3000 H   0  0  0  0  0  0  0  0  0  0  0  0
   -5.8841    3.0324    5.5982 H   0  0  0  0  0  0  0  0  0  0  0  0
   -6.3321    2.1101    7.0234 H   0  0  0  0  0  0  0  0  0  0  0  0
   -8.4499    1.3430    6.0555 H   0  0  0  0  0  0  0  0  0  0  0  0
   -8.3442    3.1003    6.0210 H   0  0  0  0  0  0  0  0  0  0  0  0
   -7.7310    3.1347    3.7079 H   0  0  0  0  0  0  0  0  0  0  0  0
   -7.8059    1.3525    3.5414 H   0  0  0  0  0  0  0  0  0  0  0  0
  -10.0758    3.1840    4.4604 H   0  0  0  0  0  0  0  0  0  0  0  0
  -10.1979    1.4016    4.3649 H   0  0  0  0  0  0  0  0  0  0  0  0
   -9.7828    1.4879    1.9671 H   0  0  0  0  0  0  0  0  0  0  0  0
  -11.2378    2.3870    2.4827 H   0  0  0  0  0  0  0  0  0  0  0  0
   -8.4580    3.5818    1.8649 H   0  0  0  0  0  0  0  0  0  0  0  0
   -9.9106    4.5072    2.4292 H   0  0  0  0  0  0  0  0  0  0  0  0
   -9.5290    4.7448    0.0526 H   0  0  0  0  0  0  0  0  0  0  0  0
  -11.1160    3.9573    0.4368 H   0  0  0  0  0  0  0  0  0  0  0  0
   -9.5398    1.7100   -0.0377 H   0  0  0  0  0  0  0  0  0  0  0  0
   -8.6013    2.9415   -0.9357 H   0  0  0  0  0  0  0  0  0  0  0  0
  -10.2964    2.6297   -1.3780 H   0  0  0  0  0  0  0  0  0  0  0  0
    1.4699   -1.6964   -6.6327 H   0  0  0  0  0  0  0  0  0  0  0  0
   -3.3249    1.5059   -3.5962 H   0  0  0  0  0  0  0  0  0  0  0  0
    3.9666   -1.2099   -2.6856 H   0  0  0  0  0  0  0  0  0  0  0  0
    3.2335   -1.0513   -0.6447 H   0  0  0  0  0  0  0  0  0  0  0  0
    4.0701    1.2222   -2.9104 H   0  0  0  0  0  0  0  0  0  0  0  0
  1  2  1  0
  1 52  1  0
  2  3  1  0
  2 46  1  0
  3 47  1  0
  4  5  1  0
  4 53  1  0
 45  5  1  6
  6 45  1  0
  7 45  1  0
  8 45  1  0
  9 10  1  0
  9 47  1  0
  9 48  1  0
 10 11  1  0
 11 12  1  0
 12 13  1  0
 13 14  1  0
 14 15  1  0
 15 16  1  0
 16 17  1  0
 17 18  1  0
 18 19  1  0
 19 20  1  0
 20 21  1  0
 21 22  1  0
 22 23  1  0
 23 24  1  0
 24 25  1  0
 25 26  1  0
 27 28  1  0
 27 46  1  0
 27 49  1  0
 28 29  1  0
 29 30  1  0
 30 31  1  0
 31 32  1  0
 32 33  1  0
 33 34  1  0
 34 35  1  0
 35 36  1  0
 36 37  1  0
 37 38  1  0
 38 39  1  0
 39 40  1  0
 40 41  1  0
 41 42  1  0
 42 43  1  0
 43 44  1  0
 50 54  1  0
 51 54  1  0
 52 54  1  0
 53 54  1  0
  1 55  1  0
  1 56  1  0
  2 57  1  6
  3 58  1  0
  3 59  1  0
  4 60  1  0
  4 61  1  0
  5 62  1  0
  5 63  1  0
  6 64  1  0
  6 65  1  0
  6 66  1  0
  7 67  1  0
  7 68  1  0
  7 69  1  0
  8 70  1  0
  8 71  1  0
  8 72  1  0
  9 73  1  0
 10 74  1  0
 10 75  1  0
 11 76  1  0
 11 77  1  0
 12 78  1  0
 12 79  1  0
 13 80  1  0
 13 81  1  0
 14 82  1  0
 14 83  1  0
 15 84  1  0
 15 85  1  0
 16 86  1  0
 16 87  1  0
 17 88  1  0
 17 89  1  0
 18 90  1  0
 18 91  1  0
 19 92  1  0
 19 93  1  0
 20 94  1  0
 20 95  1  0
 21 96  1  0
 21 97  1  0
 22 98  1  0
 22 99  1  0
 23100  1  0
 23101  1  0
 24102  1  0
 24103  1  0
 25104  1  0
 25105  1  0
 26106  1  0
 26107  1  0
 26108  1  0
 27109  1  6
 28110  1  0
 28111  1  0
 29112  1  0
 29113  1  0
 30114  1  0
 30115  1  0
 31116  1  0
 31117  1  0
 32118  1  0
 32119  1  0
 33120  1  0
 33121  1  0
 34122  1  0
 34123  1  0
 35124  1  0
 35125  1  0
 36126  1  0
 36127  1  0
 37128  1  0
 37129  1  0
 38130  1  0
 38131  1  0
 39132  1  0
 39133  1  0
 40134  1  0
 40135  1  0
 41136  1  0
 41137  1  0
 42138  1  0
 42139  1  0
 43140  1  0
 43141  1  0
 44142  1  0
 44143  1  0
 44144  1  0
 48145  1  0
 49146  1  0
 50147  1  0
 51148  1  0
 54149  1  0
M  CHG  1  45   1
M  END
$$$$
PHOSPHATIDYLCHOLINE TRANSFER PROTEIN
     RDKit          3D

149148  0  0  0  0  0  0  0  0999 V2000
   -1.9786   -0.3539   -1.4403 C   0  0  0  0  0  0  0  0  0  0  0  0
   -3.1084   -0.4622   -2.5157 C   0  0  1  0  0  0  0  0  0  0  0  0
   -2.8667    0.7106   -3.4810 C   0  0  0  0  0  0  0  0  0  0  0  0
   -2.2902    3.2220    0.1040 C   0  0  0  0  0  0  0  0  0  0  0  0
   -3.5611    3.9348    0.3573 C   0  0  0  0  0  0  0  0  0  0  0  0
   -5.6682    4.7346   -0.1552 C   0  0  0  0  0  0  0  0  0  0  0  0
   -5.2784    2.4414   -0.4365 C   0  0  0  0  0  0  0  0  0  0  0  0
   -4.3397    4.0688   -1.9218 C   0  0  0  0  0  0  0  0  0  0  0  0
   -1.1303    1.5115   -4.8158 C   0  0  0  0  0  0  0  0  0  0  0  0
    0.2028    2.0492   -4.9080 C   0  0  0  0  0  0  0  0  0  0  0  0
    0.9327    2.8829   -3.9652 C   0  0  0  0  0  0  0  0  0  0  0  0
    0.3766    4.2622   -3.6751 C   0  0  0  0  0  0  0  0  0  0  0  0
    1.2993    5.1460   -2.9687 C   0  0  0  0  0  0  0  0  0  0  0  0
    1.8546    5.0685   -1.6533 C   0  0  0  0  0  0  0  0  0  0  0  0
    0.9841    5.2992   -0.4293 C   0  0  0  0  0  0  0  0  0  0  0  0
    1.9155    5.2523    0.7844 C   0  0  0  0  0  0  0  0  0  0  0  0
    1.3950    5.6592    2.0680 C   0  0  0  0  0  0  0  0  0  0  0  0
    0.3121    5.0636    2.8339 C   0  0  0  0  0  0  0  0  0  0  0  0
    0.5284    3.6479    3.2601 C   0  0  0  0  0  0  0  0  0  0  0  0
   -0.5779    3.1660    4.1612 C   0  0  0  0  0  0  0  0  0  0  0  0
   -1.9504    3.1990    3.6146 C   0  0  0  0  0  0  0  0  0  0  0  0
   -3.0273    2.7471    4.6117 C   0  0  0  0  0  0  0  0  0  0  0  0
   -2.7752    1.3209    5.0321 C   0  0  0  0  0  0  0  0  0  0  0  0
   -3.8197    0.8493    6.0277 C   0  0  0  0  0  0  0  0  0  0  0  0
   -3.5856   -0.5830    6.4498 C   0  0  0  0  0  0  0  0  0  0  0  0
   -3.6558   -1.5284    5.2822 C   0  0  0  0  0  0  0  0  0  0  0  0
   -3.7768   -2.6608   -2.8433 C   0  0  1  0  0  0  0  0  0  0  0  0
   -3.0672   -3.8168   -2.1204 C   0  0  0  0  0  0  0  0  0  0  0  0
   -2.0137   -4.4082   -2.9918 C   0  0  0  0  0  0  0  0  0  0  0  0
   -1.2605   -5.4924   -2.2772 C   0  0  0  0  0  0  0  0  0  0  0  0
   -0.5298   -4.9955   -1.0732 C   0  0  0  0  0  0  0  0  0  0  0  0
    0.2706   -6.0046   -0.3263 C   0  0  0  0  0  0  0  0  0  0  0  0
    1.3220   -6.6699   -1.1797 C   0  0  0  0  0  0  0  0  0  0  0  0
    2.2959   -5.6908   -1.8075 C   0  0  0  0  0  0  0  0  0  0  0  0
    3.3179   -6.4433   -2.6303 C   0  0  0  0  0  0  0  0  0  0  0  0
    4.1784   -7.3830   -1.9096 C   0  0  0  0  0  0  0  0  0  0  0  0
    5.1559   -7.0042   -0.8801 C   0  0  0  0  0  0  0  0  0  0  0  0
    6.3414   -6.2032   -1.2430 C   0  0  0  0  0  0  0  0  0  0  0  0
    6.1636   -4.8241   -1.6951 C   0  0  0  0  0  0  0  0  0  0  0  0
    5.6028   -3.9429   -0.6096 C   0  0  0  0  0  0  0  0  0  0  0  0
    6.5376   -3.8723    0.5941 C   0  0  0  0  0  0  0  0  0  0  0  0
    5.8655   -2.9237    1.5774 C   0  0  0  0  0  0  0  0  0  0  0  0
    6.7134   -2.7696    2.8054 C   0  0  0  0  0  0  0  0  0  0  0  0
    6.0252   -1.8072    3.7789 C   0  0  0  0  0  0  0  0  0  0  0  0
   -4.6428    3.7302   -0.5420 N   0  0  2  0  0  0  0  0  0  0  0  0
   -2.8377   -1.6724   -3.1360 O   0  0  0  0  0  0  0  0  0  0  0  0
   -1.5038    0.6258   -3.8574 O   0  0  0  0  0  0  0  0  0  0  0  0
   -1.2408    0.6730   -6.0365 O   0  0  0  0  0  0  0  0  0  0  0  0
   -4.3075   -3.1912   -3.9992 O   0  0  0  0  0  0  0  0  0  0  0  0
    0.7551    0.8382   -0.4012 O   0  0  0  0  0  0  0  0  0  0  0  0
    0.3825    0.5411    1.2545 O   0  0  0  0  0  0  0  0  0  0  0  0
   -2.1419    0.8221   -0.7484 O   0  0  0  0  0  0  0  0  0  0  0  0
   -2.3149    1.8556    0.0938 O   0  0  0  0  0  0  0  0  0  0  0  0
   -0.8042    1.1172    0.2160 P   0  0  0  0  0  0  0  0  0  0  0  0
   -1.0433   -0.4302   -2.0329 H   0  0  0  0  0  0  0  0  0  0  0  0
   -2.0948   -1.1822   -0.7118 H   0  0  0  0  0  0  0  0  0  0  0  0
   -4.0463   -0.4578   -1.9940 H   0  0  0  0  0  0  0  0  0  0  0  0
   -3.5551    0.6291   -4.3186 H   0  0  0  0  0  0  0  0  0  0  0  0
   -2.9530    1.6101   -2.8730 H   0  0  0  0  0  0  0  0  0  0  0  0
   -1.8936    3.5537   -0.8805 H   0  0  0  0  0  0  0  0  0  0  0  0
   -1.5435    3.6228    0.8488 H   0  0  0  0  0  0  0  0  0  0  0  0
   -3.9722    3.7428    1.3912 H   0  0  0  0  0  0  0  0  0  0  0  0
   -3.3418    5.0321    0.3710 H   0  0  0  0  0  0  0  0  0  0  0  0
   -5.1553    5.6787    0.1494 H   0  0  0  0  0  0  0  0  0  0  0  0
   -6.2671    4.3658    0.6838 H   0  0  0  0  0  0  0  0  0  0  0  0
   -6.3033    4.9431   -1.0280 H   0  0  0  0  0  0  0  0  0  0  0  0
   -6.2111    2.5688    0.1782 H   0  0  0  0  0  0  0  0  0  0  0  0
   -4.6091    1.7269    0.0421 H   0  0  0  0  0  0  0  0  0  0  0  0
   -5.6356    2.1088   -1.4389 H   0  0  0  0  0  0  0  0  0  0  0  0
   -5.1034    3.5538   -2.5531 H   0  0  0  0  0  0  0  0  0  0  0  0
   -3.3209    3.8751   -2.2389 H   0  0  0  0  0  0  0  0  0  0  0  0
   -4.5131    5.1693   -2.1115 H   0  0  0  0  0  0  0  0  0  0  0  0
   -1.9768    2.2403   -5.0379 H   0  0  0  0  0  0  0  0  0  0  0  0
    0.9116    1.1423   -5.1106 H   0  0  0  0  0  0  0  0  0  0  0  0
    0.2678    2.5685   -5.9422 H   0  0  0  0  0  0  0  0  0  0  0  0
    2.0218    3.0109   -4.2274 H   0  0  0  0  0  0  0  0  0  0  0  0
    0.9642    2.3691   -2.9761 H   0  0  0  0  0  0  0  0  0  0  0  0
   -0.6110    4.1724   -3.1354 H   0  0  0  0  0  0  0  0  0  0  0  0
    0.1142    4.7052   -4.6465 H   0  0  0  0  0  0  0  0  0  0  0  0
    0.8035    6.2015   -3.0523 H   0  0  0  0  0  0  0  0  0  0  0  0
    2.1725    5.3146   -3.7287 H   0  0  0  0  0  0  0  0  0  0  0  0
    2.6650    5.8668   -1.5580 H   0  0  0  0  0  0  0  0  0  0  0  0
    2.4411    4.1132   -1.5285 H   0  0  0  0  0  0  0  0  0  0  0  0
    0.5513    6.3135   -0.4756 H   0  0  0  0  0  0  0  0  0  0  0  0
    0.2329    4.5058   -0.3496 H   0  0  0  0  0  0  0  0  0  0  0  0
    2.3114    4.1866    0.8877 H   0  0  0  0  0  0  0  0  0  0  0  0
    2.8145    5.8756    0.5326 H   0  0  0  0  0  0  0  0  0  0  0  0
    1.0950    6.7862    1.9333 H   0  0  0  0  0  0  0  0  0  0  0  0
    2.2790    5.8146    2.8118 H   0  0  0  0  0  0  0  0  0  0  0  0
   -0.7013    5.2224    2.3838 H   0  0  0  0  0  0  0  0  0  0  0  0
    0.2323    5.6535    3.8101 H   0  0  0  0  0  0  0  0  0  0  0  0
    1.4486    3.6581    3.9127 H   0  0  0  0  0  0  0  0  0  0  0  0
    0.7230    2.9269    2.4718 H   0  0  0  0  0  0  0  0  0  0  0  0
   -0.5712    3.7074    5.1320 H   0  0  0  0  0  0  0  0  0  0  0  0
   -0.3179    2.0976    4.4006 H   0  0  0  0  0  0  0  0  0  0  0  0
   -1.9931    2.3786    2.8269 H   0  0  0  0  0  0  0  0  0  0  0  0
   -2.2665    4.1196    3.1198 H   0  0  0  0  0  0  0  0  0  0  0  0
   -3.0324    3.4045    5.5058 H   0  0  0  0  0  0  0  0  0  0  0  0
   -3.9944    2.7772    4.0746 H   0  0  0  0  0  0  0  0  0  0  0  0
   -1.8088    1.3177    5.5864 H   0  0  0  0  0  0  0  0  0  0  0  0
   -2.7867    0.6429    4.1619 H   0  0  0  0  0  0  0  0  0  0  0  0
   -4.8194    0.8877    5.5289 H   0  0  0  0  0  0  0  0  0  0  0  0
   -3.8717    1.4728    6.9245 H   0  0  0  0  0  0  0  0  0  0  0  0
   -2.5299   -0.6371    6.8443 H   0  0  0  0  0  0  0  0  0  0  0  0
   -4.3139   -0.8517    7.2292 H   0  0  0  0  0  0  0  0  0  0  0  0
   -4.3707   -1.1209    4.5091 H   0  0  0  0  0  0  0  0  0  0  0  0
   -4.0905   -2.5136    5.5551 H   0  0  0  0  0  0  0  0  0  0  0  0
   -2.6907   -1.7189    4.7865 H   0  0  0  0  0  0  0  0  0  0  0  0
   -4.5159   -2.2483   -2.1546 H   0  0  0  0  0  0  0  0  0  0  0  0
   -2.7060   -3.4527   -1.1456 H   0  0  0  0  0  0  0  0  0  0  0  0
   -3.8546   -4.5912   -1.9542 H   0  0  0  0  0  0  0  0  0  0  0  0
   -1.2991   -3.6509   -3.3804 H   0  0  0  0  0  0  0  0  0  0  0  0
   -2.5254   -4.8330   -3.8874 H   0  0  0  0  0  0  0  0  0  0  0  0
   -0.5397   -5.9620   -3.0022 H   0  0  0  0  0  0  0  0  0  0  0  0
   -1.9570   -6.3381   -2.0263 H   0  0  0  0  0  0  0  0  0  0  0  0
    0.0504   -4.0788   -1.3086 H   0  0  0  0  0  0  0  0  0  0  0  0
   -1.3100   -4.6270   -0.3379 H   0  0  0  0  0  0  0  0  0  0  0  0
    0.8006   -5.4680    0.4884 H   0  0  0  0  0  0  0  0  0  0  0  0
   -0.3687   -6.7925    0.0718 H   0  0  0  0  0  0  0  0  0  0  0  0
    1.9277   -7.2865   -0.4547 H   0  0  0  0  0  0  0  0  0  0  0  0
    0.9097   -7.3696   -1.9146 H   0  0  0  0  0  0  0  0  0  0  0  0
    1.7571   -5.0240   -2.5230 H   0  0  0  0  0  0  0  0  0  0  0  0
    2.7700   -5.0448   -1.0787 H   0  0  0  0  0  0  0  0  0  0  0  0
    3.8419   -5.8129   -3.3651 H   0  0  0  0  0  0  0  0  0  0  0  0
    2.6730   -7.1083   -3.3496 H   0  0  0  0  0  0  0  0  0  0  0  0
    4.6828   -8.0677   -2.6854 H   0  0  0  0  0  0  0  0  0  0  0  0
    3.4747   -8.1415   -1.4073 H   0  0  0  0  0  0  0  0  0  0  0  0
    5.4927   -7.9726   -0.3925 H   0  0  0  0  0  0  0  0  0  0  0  0
    4.5836   -6.4931   -0.0414 H   0  0  0  0  0  0  0  0  0  0  0  0
    7.0526   -6.1587   -0.3404 H   0  0  0  0  0  0  0  0  0  0  0  0
    6.9922   -6.7991   -1.9931 H   0  0  0  0  0  0  0  0  0  0  0  0
    7.2202   -4.4280   -1.9409 H   0  0  0  0  0  0  0  0  0  0  0  0
    5.5994   -4.6637   -2.6320 H   0  0  0  0  0  0  0  0  0  0  0  0
    4.6373   -4.2700   -0.2021 H   0  0  0  0  0  0  0  0  0  0  0  0
    5.4900   -2.8943   -1.0041 H   0  0  0  0  0  0  0  0  0  0  0  0
    6.5545   -4.8637    1.1094 H   0  0  0  0  0  0  0  0  0  0  0  0
    7.5597   -3.5791    0.3365 H   0  0  0  0  0  0  0  0  0  0  0  0
    4.8893   -3.3629    1.8961 H   0  0  0  0  0  0  0  0  0  0  0  0
    5.7044   -1.9501    1.0797 H   0  0  0  0  0  0  0  0  0  0  0  0
    7.6988   -2.3064    2.5852 H   0  0  0  0  0  0  0  0  0  0  0  0
    6.8173   -3.7413    3.3384 H   0  0  0  0  0  0  0  0  0  0  0  0
    5.8087   -0.8705    3.1887 H   0  0  0  0  0  0  0  0  0  0  0  0
    6.6650   -1.5810    4.6525 H   0  0  0  0  0  0  0  0  0  0  0  0
    5.0617   -2.1821    4.1245 H   0  0  0  0  0  0  0  0  0  0  0  0
   -0.5053    0.0101   -5.9613 H   0  0  0  0  0  0  0  0  0  0  0  0
   -5.2647   -3.3829   -3.8932 H   0  0  0  0  0  0  0  0  0  0  0  0
    0.6424    0.4116   -1.2854 H   0  0  0  0  0  0  0  0  0  0  0  0
   -0.0544    0.0487    1.9739 H   0  0  0  0  0  0  0  0  0  0  0  0
    0.1357    2.1280    0.3261 H   0  0  0  0  0  0  0  0  0  0  0  0
  1  2  1  0
  1 52  1  0
  2  3  1  0
  2 46  1  0
  3 47  1  0
  4  5  1  0
  4 53  1  0
 45  5  1  1
  6 45  1  0
  7 45  1  0
  8 45  1  0
  9 10  1  0
  9 47  1  0
  9 48  1  0
 10 11  1  0
 11 12  1  0
 12 13  1  0
 13 14  1  0
 14 15  1  0
 15 16  1  0
 16 17  1  0
 17 18  1  0
 18 19  1  0
 19 20  1  0
 20 21  1  0
 21 22  1  0
 22 23  1  0
 23 24  1  0
 24 25  1  0
 25 26  1  0
 27 28  1  0
 27 46  1  0
 27 49  1  0
 28 29  1  0
 29 30  1  0
 30 31  1  0
 31 32  1  0
 32 33  1  0
 33 34  1  0
 34 35  1  0
 35 36  1  0
 36 37  1  0
 37 38  1  0
 38 39  1  0
 39 40  1  0
 40 41  1  0
 41 42  1  0
 42 43  1  0
 43 44  1  0
 50 54  1  0
 51 54  1  0
 52 54  1  0
 53 54  1  0
  1 55  1  0
  1 56  1  0
  2 57  1  1
  3 58  1  0
  3 59  1  0
  4 60  1  0
  4 61  1  0
  5 62  1  0
  5 63  1  0
  6 64  1  0
  6 65  1  0
  6 66  1  0
  7 67  1  0
  7 68  1  0
  7 69  1  0
  8 70  1  0
  8 71  1  0
  8 72  1  0
  9 73  1  0
 10 74  1  0
 10 75  1  0
 11 76  1  0
 11 77  1  0
 12 78  1  0
 12 79  1  0
 13 80  1  0
 13 81  1  0
 14 82  1  0
 14 83  1  0
 15 84  1  0
 15 85  1  0
 16 86  1  0
 16 87  1  0
 17 88  1  0
 17 89  1  0
 18 90  1  0
 18 91  1  0
 19 92  1  0
 19 93  1  0
 20 94  1  0
 20 95  1  0
 21 96  1  0
 21 97  1  0
 22 98  1  0
 22 99  1  0
 23100  1  0
 23101  1  0
 24102  1  0
 24103  1  0
 25104  1  0
 25105  1  0
 26106  1  0
 26107  1  0
 26108  1  0
 27109  1  1
 28110  1  0
 28111  1  0
 29112  1  0
 29113  1  0
 30114  1  0
 30115  1  0
 31116  1  0
 31117  1  0
 32118  1  0
 32119  1  0
 33120  1  0
 33121  1  0
 34122  1  0
 34123  1  0
 35124  1  0
 35125  1  0
 36126  1  0
 36127  1  0
 37128  1  0
 37129  1  0
 38130  1  0
 38131  1  0
 39132  1  0
 39133  1  0
 40134  1  0
 40135  1  0
 41136  1  0
 41137  1  0
 42138  1  0
 42139  1  0
 43140  1  0
 43141  1  0
 44142  1  0
 44143  1  0
 44144  1  0
 48145  1  0
 49146  1  0
 50147  1  0
 51148  1  0
 54149  1  0
M  CHG  1  45   1
M  END
$$$$
PHOSPHATIDYLCHOLINE TRANSFER PROTEIN
     RDKit          3D

149148  0  0  0  0  0  0  0  0999 V2000
   -1.4875   -1.6382   -1.8189 C   0  0  0  0  0  0  0  0  0  0  0  0
   -1.4035   -0.1800   -2.1676 C   0  0  1  0  0  0  0  0  0  0  0  0
   -1.0482   -0.0431   -3.6267 C   0  0  0  0  0  0  0  0  0  0  0  0
    2.5533   -3.3781   -1.3521 C   0  0  0  0  0  0  0  0  0  0  0  0
    3.9134   -3.4731   -1.9949 C   0  0  0  0  0  0  0  0  0  0  0  0
    5.3792   -1.6706   -2.0023 C   0  0  0  0  0  0  0  0  0  0  0  0
    6.1019   -3.6543   -0.9806 C   0  0  0  0  0  0  0  0  0  0  0  0
    4.5051   -2.3141    0.0464 C   0  0  0  0  0  0  0  0  0  0  0  0
    0.4252   -0.6899   -5.2419 C   0  0  0  0  0  0  0  0  0  0  0  0
    1.8582   -0.8265   -5.4915 C   0  0  0  0  0  0  0  0  0  0  0  0
    2.8197    0.0374   -4.7828 C   0  0  0  0  0  0  0  0  0  0  0  0
    2.6624    1.5130   -4.9008 C   0  0  0  0  0  0  0  0  0  0  0  0
    3.8158    2.1427   -4.1478 C   0  0  0  0  0  0  0  0  0  0  0  0
    3.7742    3.6407   -4.0767 C   0  0  0  0  0  0  0  0  0  0  0  0
    2.5546    4.1200   -3.3085 C   0  0  0  0  0  0  0  0  0  0  0  0
    2.4752    5.6117   -3.1631 C   0  0  0  0  0  0  0  0  0  0  0  0
    1.2467    6.0133   -2.3513 C   0  0  0  0  0  0  0  0  0  0  0  0
    1.3181    5.3770   -0.9664 C   0  0  0  0  0  0  0  0  0  0  0  0
    2.5245    5.8151   -0.2308 C   0  0  0  0  0  0  0  0  0  0  0  0
    2.6307    5.1432    1.1114 C   0  0  0  0  0  0  0  0  0  0  0  0
    2.7510    3.6722    0.9186 C   0  0  0  0  0  0  0  0  0  0  0  0
    2.9160    2.8846    2.2228 C   0  0  0  0  0  0  0  0  0  0  0  0
    4.1150    3.3110    2.9745 C   0  0  0  0  0  0  0  0  0  0  0  0
    4.3689    2.5117    4.1986 C   0  0  0  0  0  0  0  0  0  0  0  0
    3.3462    2.4474    5.2603 C   0  0  0  0  0  0  0  0  0  0  0  0
    2.0395    1.8115    4.9336 C   0  0  0  0  0  0  0  0  0  0  0  0
   -2.3955    1.5982   -1.0258 C   0  0  1  0  0  0  0  0  0  0  0  0
   -3.4798    1.4569    0.0349 C   0  0  0  0  0  0  0  0  0  0  0  0
   -3.3790    2.5483    1.0493 C   0  0  0  0  0  0  0  0  0  0  0  0
   -2.1480    2.6444    1.8398 C   0  0  0  0  0  0  0  0  0  0  0  0
   -1.7361    1.6488    2.8086 C   0  0  0  0  0  0  0  0  0  0  0  0
   -1.5629    0.2247    2.4923 C   0  0  0  0  0  0  0  0  0  0  0  0
   -1.0196   -0.4764    3.7549 C   0  0  0  0  0  0  0  0  0  0  0  0
   -0.8427   -1.9485    3.5974 C   0  0  0  0  0  0  0  0  0  0  0  0
   -2.1436   -2.6830    3.3497 C   0  0  0  0  0  0  0  0  0  0  0  0
   -1.9363   -4.1606    3.2179 C   0  0  0  0  0  0  0  0  0  0  0  0
   -3.2423   -4.8565    3.0342 C   0  0  0  0  0  0  0  0  0  0  0  0
   -4.0130   -4.3942    1.7835 C   0  0  0  0  0  0  0  0  0  0  0  0
   -5.2702   -5.1819    1.7423 C   0  0  0  0  0  0  0  0  0  0  0  0
   -6.2210   -5.0720    0.6488 C   0  0  0  0  0  0  0  0  0  0  0  0
   -6.9254   -3.8362    0.2676 C   0  0  0  0  0  0  0  0  0  0  0  0
   -6.1189   -2.7239   -0.2616 C   0  0  0  0  0  0  0  0  0  0  0  0
   -7.0219   -1.5155   -0.6292 C   0  0  0  0  0  0  0  0  0  0  0  0
   -7.7508   -1.0303    0.5943 C   0  0  0  0  0  0  0  0  0  0  0  0
    4.9368   -2.8254   -1.2170 N   0  0  2  0  0  0  0  0  0  0  0  0
   -2.5402    0.5669   -1.9310 O   0  0  0  0  0  0  0  0  0  0  0  0
    0.0699   -0.8720   -3.8841 O   0  0  0  0  0  0  0  0  0  0  0  0
   -0.1636   -1.8953   -5.8245 O   0  0  0  0  0  0  0  0  0  0  0  0
   -2.6063    2.8071   -1.7424 O   0  0  0  0  0  0  0  0  0  0  0  0
   -0.1180   -5.1045   -2.3280 O   0  0  0  0  0  0  0  0  0  0  0  0
    0.0851   -4.5086    0.0035 O   0  0  0  0  0  0  0  0  0  0  0  0
   -0.2470   -2.1864   -2.1448 O   0  0  0  0  0  0  0  0  0  0  0  0
    1.6006   -4.0321   -2.1686 O   0  0  0  0  0  0  0  0  0  0  0  0
    0.0646   -3.6780   -1.4821 P   0  0  0  0  0  0  0  0  0  0  0  0
   -2.2253   -2.1432   -2.5086 H   0  0  0  0  0  0  0  0  0  0  0  0
   -1.8121   -1.8356   -0.7903 H   0  0  0  0  0  0  0  0  0  0  0  0
   -0.5755    0.2336   -1.5275 H   0  0  0  0  0  0  0  0  0  0  0  0
   -0.7439    1.0141   -3.8161 H   0  0  0  0  0  0  0  0  0  0  0  0
   -1.9109   -0.3177   -4.2650 H   0  0  0  0  0  0  0  0  0  0  0  0
    2.1825   -2.3655   -1.1885 H   0  0  0  0  0  0  0  0  0  0  0  0
    2.5713   -3.9698   -0.3957 H   0  0  0  0  0  0  0  0  0  0  0  0
    3.8367   -3.1111   -3.0378 H   0  0  0  0  0  0  0  0  0  0  0  0
    4.1621   -4.5462   -2.0466 H   0  0  0  0  0  0  0  0  0  0  0  0
    4.7080   -1.4822   -2.8799 H   0  0  0  0  0  0  0  0  0  0  0  0
    6.3909   -1.8556   -2.4408 H   0  0  0  0  0  0  0  0  0  0  0  0
    5.4508   -0.7527   -1.3908 H   0  0  0  0  0  0  0  0  0  0  0  0
    6.2275   -4.4061   -1.7891 H   0  0  0  0  0  0  0  0  0  0  0  0
    6.9907   -2.9838   -0.9641 H   0  0  0  0  0  0  0  0  0  0  0  0
    6.0594   -4.1444    0.0212 H   0  0  0  0  0  0  0  0  0  0  0  0
    4.3168   -3.0627    0.8288 H   0  0  0  0  0  0  0  0  0  0  0  0
    3.6879   -1.5748   -0.0569 H   0  0  0  0  0  0  0  0  0  0  0  0
    5.3745   -1.7093    0.4419 H   0  0  0  0  0  0  0  0  0  0  0  0
   -0.1495    0.0912   -5.7399 H   0  0  0  0  0  0  0  0  0  0  0  0
    2.0398   -0.6416   -6.6060 H   0  0  0  0  0  0  0  0  0  0  0  0
    2.1574   -1.9129   -5.3905 H   0  0  0  0  0  0  0  0  0  0  0  0
    2.7571   -0.2299   -3.6801 H   0  0  0  0  0  0  0  0  0  0  0  0
    3.8821   -0.2076   -5.0310 H   0  0  0  0  0  0  0  0  0  0  0  0
    1.7301    1.8914   -4.4272 H   0  0  0  0  0  0  0  0  0  0  0  0
    2.7373    1.8563   -5.9462 H   0  0  0  0  0  0  0  0  0  0  0  0
    3.7589    1.6990   -3.1108 H   0  0  0  0  0  0  0  0  0  0  0  0
    4.7697    1.8644   -4.6428 H   0  0  0  0  0  0  0  0  0  0  0  0
    3.8231    4.0895   -5.0723 H   0  0  0  0  0  0  0  0  0  0  0  0
    4.6551    3.9786   -3.4954 H   0  0  0  0  0  0  0  0  0  0  0  0
    2.5228    3.5529   -2.3694 H   0  0  0  0  0  0  0  0  0  0  0  0
    1.6242    3.8101   -3.8643 H   0  0  0  0  0  0  0  0  0  0  0  0
    2.3169    6.0754   -4.1617 H   0  0  0  0  0  0  0  0  0  0  0  0
    3.4115    6.0382   -2.7661 H   0  0  0  0  0  0  0  0  0  0  0  0
    1.2098    7.1072   -2.2138 H   0  0  0  0  0  0  0  0  0  0  0  0
    0.3537    5.6925   -2.9107 H   0  0  0  0  0  0  0  0  0  0  0  0
    1.2480    4.3062   -1.0784 H   0  0  0  0  0  0  0  0  0  0  0  0
    0.4086    5.7070   -0.3786 H   0  0  0  0  0  0  0  0  0  0  0  0
    3.4131    5.4532   -0.8203 H   0  0  0  0  0  0  0  0  0  0  0  0
    2.5663    6.9235   -0.1080 H   0  0  0  0  0  0  0  0  0  0  0  0
    1.7044    5.4220    1.6921 H   0  0  0  0  0  0  0  0  0  0  0  0
    3.4613    5.5963    1.6704 H   0  0  0  0  0  0  0  0  0  0  0  0
    1.7596    3.2946    0.5287 H   0  0  0  0  0  0  0  0  0  0  0  0
    3.4987    3.4179    0.1745 H   0  0  0  0  0  0  0  0  0  0  0  0
    1.9695    3.0513    2.7782 H   0  0  0  0  0  0  0  0  0  0  0  0
    2.9819    1.8264    1.9491 H   0  0  0  0  0  0  0  0  0  0  0  0
    4.0746    4.3895    3.2884 H   0  0  0  0  0  0  0  0  0  0  0  0
    5.0317    3.2500    2.3188 H   0  0  0  0  0  0  0  0  0  0  0  0
    4.5570    1.4219    3.8929 H   0  0  0  0  0  0  0  0  0  0  0  0
    5.3861    2.7957    4.6100 H   0  0  0  0  0  0  0  0  0  0  0  0
    3.8013    1.8464    6.1112 H   0  0  0  0  0  0  0  0  0  0  0  0
    3.1086    3.4521    5.7071 H   0  0  0  0  0  0  0  0  0  0  0  0
    1.1753    2.4900    4.8745 H   0  0  0  0  0  0  0  0  0  0  0  0
    2.0423    1.1375    4.0561 H   0  0  0  0  0  0  0  0  0  0  0  0
    1.7325    1.1011    5.7843 H   0  0  0  0  0  0  0  0  0  0  0  0
   -1.3971    1.6248   -0.5534 H   0  0  0  0  0  0  0  0  0  0  0  0
   -4.4366    1.6609   -0.5439 H   0  0  0  0  0  0  0  0  0  0  0  0
   -3.4504    0.4296    0.3920 H   0  0  0  0  0  0  0  0  0  0  0  0
   -4.3135    2.6143    1.6854 H   0  0  0  0  0  0  0  0  0  0  0  0
   -3.4524    3.5092    0.4475 H   0  0  0  0  0  0  0  0  0  0  0  0
   -1.3084    2.8716    1.0882 H   0  0  0  0  0  0  0  0  0  0  0  0
   -2.1977    3.6577    2.3768 H   0  0  0  0  0  0  0  0  0  0  0  0
   -2.3841    1.7169    3.7493 H   0  0  0  0  0  0  0  0  0  0  0  0
   -0.7304    1.9958    3.2335 H   0  0  0  0  0  0  0  0  0  0  0  0
   -0.8594    0.0073    1.6780 H   0  0  0  0  0  0  0  0  0  0  0  0
   -2.5015   -0.3319    2.2903 H   0  0  0  0  0  0  0  0  0  0  0  0
   -1.7056   -0.3238    4.6213 H   0  0  0  0  0  0  0  0  0  0  0  0
   -0.0229   -0.0343    3.9928 H   0  0  0  0  0  0  0  0  0  0  0  0
   -0.2104   -2.1611    2.6803 H   0  0  0  0  0  0  0  0  0  0  0  0
   -0.2853   -2.3500    4.4421 H   0  0  0  0  0  0  0  0  0  0  0  0
   -2.8357   -2.4852    4.1691 H   0  0  0  0  0  0  0  0  0  0  0  0
   -2.5263   -2.3328    2.3523 H   0  0  0  0  0  0  0  0  0  0  0  0
   -1.4898   -4.5852    4.1615 H   0  0  0  0  0  0  0  0  0  0  0  0
   -1.2508   -4.4231    2.3764 H   0  0  0  0  0  0  0  0  0  0  0  0
   -3.1560   -5.9503    2.9336 H   0  0  0  0  0  0  0  0  0  0  0  0
   -3.9147   -4.6598    3.9177 H   0  0  0  0  0  0  0  0  0  0  0  0
   -3.4110   -4.5423    0.8817 H   0  0  0  0  0  0  0  0  0  0  0  0
   -4.2301   -3.3047    1.9218 H   0  0  0  0  0  0  0  0  0  0  0  0
   -4.9613   -6.2866    1.8717 H   0  0  0  0  0  0  0  0  0  0  0  0
   -5.7837   -5.0030    2.7618 H   0  0  0  0  0  0  0  0  0  0  0  0
   -5.7638   -5.4938   -0.3261 H   0  0  0  0  0  0  0  0  0  0  0  0
   -7.0337   -5.8875    0.8223 H   0  0  0  0  0  0  0  0  0  0  0  0
   -7.6835   -4.0908   -0.5388 H   0  0  0  0  0  0  0  0  0  0  0  0
   -7.5206   -3.4158    1.1363 H   0  0  0  0  0  0  0  0  0  0  0  0
   -5.6635   -3.0190   -1.2508 H   0  0  0  0  0  0  0  0  0  0  0  0
   -5.3712   -2.3684    0.4389 H   0  0  0  0  0  0  0  0  0  0  0  0
   -7.7256   -1.9220   -1.3710 H   0  0  0  0  0  0  0  0  0  0  0  0
   -6.3737   -0.6952   -1.0185 H   0  0  0  0  0  0  0  0  0  0  0  0
   -8.8028   -1.3254    0.6605 H   0  0  0  0  0  0  0  0  0  0  0  0
   -7.6519    0.0835    0.7136 H   0  0  0  0  0  0  0  0  0  0  0  0
   -7.2274   -1.4406    1.5039 H   0  0  0  0  0  0  0  0  0  0  0  0
   -1.1423   -1.7570   -5.8981 H   0  0  0  0  0  0  0  0  0  0  0  0
   -3.2291    2.6707   -2.4954 H   0  0  0  0  0  0  0  0  0  0  0  0
   -0.6354   -4.8912   -3.1468 H   0  0  0  0  0  0  0  0  0  0  0  0
    0.7925   -4.0637    0.5661 H   0  0  0  0  0  0  0  0  0  0  0  0
   -1.1127   -4.0322   -0.8632 H   0  0  0  0  0  0  0  0  0  0  0  0
  1  2  1  0
  1 52  1  0
  2  3  1  0
  2 46  1  0
  3 47  1  0
  4  5  1  0
  4 53  1  0
 45  5  1  6
  6 45  1  0
  7 45  1  0
  8 45  1  0
  9 10  1  0
  9 47  1  0
  9 48  1  0
 10 11  1  0
 11 12  1  0
 12 13  1  0
 13 14  1  0
 14 15  1  0
 15 16  1  0
 16 17  1  0
 17 18  1  0
 18 19  1  0
 19 20  1  0
 20 21  1  0
 21 22  1  0
 22 23  1  0
 23 24  1  0
 24 25  1  0
 25 26  1  0
 27 28  1  0
 27 46  1  0
 27 49  1  0
 28 29  1  0
 29 30  1  0
 30 31  1  0
 31 32  1  0
 32 33  1  0
 33 34  1  0
 34 35  1  0
 35 36  1  0
 36 37  1  0
 37 38  1  0
 38 39  1  0
 39 40  1  0
 40 41  1  0
 41 42  1  0
 42 43  1  0
 43 44  1  0
 50 54  1  0
 51 54  1  0
 52 54  1  0
 53 54  1  0
  1 55  1  0
  1 56  1  0
  2 57  1  1
  3 58  1  0
  3 59  1  0
  4 60  1  0
  4 61  1  0
  5 62  1  0
  5 63  1  0
  6 64  1  0
  6 65  1  0
  6 66  1  0
  7 67  1  0
  7 68  1  0
  7 69  1  0
  8 70  1  0
  8 71  1  0
  8 72  1  0
  9 73  1  0
 10 74  1  0
 10 75  1  0
 11 76  1  0
 11 77  1  0
 12 78  1  0
 12 79  1  0
 13 80  1  0
 13 81  1  0
 14 82  1  0
 14 83  1  0
 15 84  1  0
 15 85  1  0
 16 86  1  0
 16 87  1  0
 17 88  1  0
 17 89  1  0
 18 90  1  0
 18 91  1  0
 19 92  1  0
 19 93  1  0
 20 94  1  0
 20 95  1  0
 21 96  1  0
 21 97  1  0
 22 98  1  0
 22 99  1  0
 23100  1  0
 23101  1  0
 24102  1  0
 24103  1  0
 25104  1  0
 25105  1  0
 26106  1  0
 26107  1  0
 26108  1  0
 27109  1  1
 28110  1  0
 28111  1  0
 29112  1  0
 29113  1  0
 30114  1  0
 30115  1  0
 31116  1  0
 31117  1  0
 32118  1  0
 32119  1  0
 33120  1  0
 33121  1  0
 34122  1  0
 34123  1  0
 35124  1  0
 35125  1  0
 36126  1  0
 36127  1  0
 37128  1  0
 37129  1  0
 38130  1  0
 38131  1  0
 39132  1  0
 39133  1  0
 40134  1  0
 40135  1  0
 41136  1  0
 41137  1  0
 42138  1  0
 42139  1  0
 43140  1  0
 43141  1  0
 44142  1  0
 44143  1  0
 44144  1  0
 48145  1  0
 49146  1  0
 50147  1  0
 51148  1  0
 54149  1  0
M  CHG  1  45   1
M  END
$$$$
PHOSPHATIDYLCHOLINE TRANSFER PROTEIN
     RDKit          3D

149148  0  0  0  0  0  0  0  0999 V2000
   -1.5973   -3.7236   -3.0569 C   0  0  0  0  0  0  0  0  0  0  0  0
   -1.8905   -2.8089   -4.2060 C   0  0  1  0  0  0  0  0  0  0  0  0
   -3.3863   -2.5167   -4.1399 C   0  0  0  0  0  0  0  0  0  0  0  0
   -1.5481   -7.3115   -0.1043 C   0  0  0  0  0  0  0  0  0  0  0  0
   -0.6728   -7.8587    0.9830 C   0  0  0  0  0  0  0  0  0  0  0  0
    1.3877   -6.7418    1.1487 C   0  0  0  0  0  0  0  0  0  0  0  0
    0.9511   -8.1412   -0.7524 C   0  0  0  0  0  0  0  0  0  0  0  0
    1.2737   -9.0451    1.4247 C   0  0  0  0  0  0  0  0  0  0  0  0
   -5.1449   -1.7488   -2.9550 C   0  0  0  0  0  0  0  0  0  0  0  0
   -5.4441   -0.4673   -2.2532 C   0  0  0  0  0  0  0  0  0  0  0  0
   -4.7097    0.7209   -2.7785 C   0  0  0  0  0  0  0  0  0  0  0  0
   -5.0756    1.9629   -1.9595 C   0  0  0  0  0  0  0  0  0  0  0  0
   -4.7513    1.7732   -0.5170 C   0  0  0  0  0  0  0  0  0  0  0  0
   -5.1159    3.0701    0.2281 C   0  0  0  0  0  0  0  0  0  0  0  0
   -4.8550    2.9387    1.6761 C   0  0  0  0  0  0  0  0  0  0  0  0
   -5.1524    4.0933    2.5138 C   0  0  0  0  0  0  0  0  0  0  0  0
   -4.4399    5.3363    2.5633 C   0  0  0  0  0  0  0  0  0  0  0  0
   -4.1369    6.3464    1.5766 C   0  0  0  0  0  0  0  0  0  0  0  0
   -3.2607    6.1461    0.4219 C   0  0  0  0  0  0  0  0  0  0  0  0
   -1.8437    5.6824    0.8376 C   0  0  0  0  0  0  0  0  0  0  0  0
   -1.0898    5.5433   -0.4363 C   0  0  0  0  0  0  0  0  0  0  0  0
    0.2766    5.0217   -0.3977 C   0  0  0  0  0  0  0  0  0  0  0  0
    1.3608    5.6756    0.3633 C   0  0  0  0  0  0  0  0  0  0  0  0
    1.2558    5.7154    1.8359 C   0  0  0  0  0  0  0  0  0  0  0  0
    2.5188    6.4088    2.3830 C   0  0  0  0  0  0  0  0  0  0  0  0
    2.3663    6.4185    3.8762 C   0  0  0  0  0  0  0  0  0  0  0  0
   -0.4000   -1.3116   -5.0891 C   0  0  1  0  0  0  0  0  0  0  0  0
    0.8909   -0.6734   -4.8400 C   0  0  0  0  0  0  0  0  0  0  0  0
    1.8676   -1.3740   -4.0048 C   0  0  0  0  0  0  0  0  0  0  0  0
    1.5923   -1.6153   -2.5756 C   0  0  0  0  0  0  0  0  0  0  0  0
    1.3832   -0.3366   -1.7833 C   0  0  0  0  0  0  0  0  0  0  0  0
    2.5714    0.5865   -1.8723 C   0  0  0  0  0  0  0  0  0  0  0  0
    3.8522   -0.0034   -1.3415 C   0  0  0  0  0  0  0  0  0  0  0  0
    4.9478    1.0295   -1.5319 C   0  0  0  0  0  0  0  0  0  0  0  0
    6.2738    0.5781   -1.0433 C   0  0  0  0  0  0  0  0  0  0  0  0
    6.3716    0.2760    0.4201 C   0  0  0  0  0  0  0  0  0  0  0  0
    6.0623    1.5141    1.2575 C   0  0  0  0  0  0  0  0  0  0  0  0
    6.1725    1.2598    2.7307 C   0  0  0  0  0  0  0  0  0  0  0  0
    5.2285    0.2157    3.2238 C   0  0  0  0  0  0  0  0  0  0  0  0
    3.7918    0.5936    2.9887 C   0  0  0  0  0  0  0  0  0  0  0  0
    2.8115   -0.4457    3.4844 C   0  0  0  0  0  0  0  0  0  0  0  0
    3.0387   -1.7433    2.7848 C   0  0  0  0  0  0  0  0  0  0  0  0
    2.0886   -2.8321    3.2344 C   0  0  0  0  0  0  0  0  0  0  0  0
    2.2385   -3.1030    4.7160 C   0  0  0  0  0  0  0  0  0  0  0  0
    0.7157   -7.9378    0.6481 N   0  0  2  0  0  0  0  0  0  0  0  0
   -1.1640   -1.6204   -4.0085 O   0  0  0  0  0  0  0  0  0  0  0  0
   -3.7906   -2.0799   -2.8960 O   0  0  0  0  0  0  0  0  0  0  0  0
   -5.7855   -2.8360   -2.2865 O   0  0  0  0  0  0  0  0  0  0  0  0
   -1.1287   -0.2760   -5.8421 O   0  0  0  0  0  0  0  0  0  0  0  0
   -3.9635   -6.1990   -1.3429 O   0  0  0  0  0  0  0  0  0  0  0  0
   -2.3282   -4.4033   -0.3025 O   0  0  0  0  0  0  0  0  0  0  0  0
   -2.3125   -4.9284   -3.1476 O   0  0  0  0  0  0  0  0  0  0  0  0
   -1.2311   -6.0257   -0.5063 O   0  0  0  0  0  0  0  0  0  0  0  0
   -2.4386   -5.5346   -1.5777 P   0  0  0  0  0  0  0  0  0  0  0  0
   -1.6495   -3.2519   -2.0690 H   0  0  0  0  0  0  0  0  0  0  0  0
   -0.5091   -4.0266   -3.1974 H   0  0  0  0  0  0  0  0  0  0  0  0
   -1.7164   -3.3032   -5.1469 H   0  0  0  0  0  0  0  0  0  0  0  0
   -3.8791   -3.4916   -4.3366 H   0  0  0  0  0  0  0  0  0  0  0  0
   -3.7266   -1.8483   -4.9629 H   0  0  0  0  0  0  0  0  0  0  0  0
   -1.5513   -7.9778   -0.9934 H   0  0  0  0  0  0  0  0  0  0  0  0
   -2.5947   -7.3033    0.2832 H   0  0  0  0  0  0  0  0  0  0  0  0
   -0.7681   -7.2827    1.9197 H   0  0  0  0  0  0  0  0  0  0  0  0
   -1.0462   -8.8862    1.2345 H   0  0  0  0  0  0  0  0  0  0  0  0
    0.9467   -6.4049    2.1089 H   0  0  0  0  0  0  0  0  0  0  0  0
    1.3148   -5.9625    0.3753 H   0  0  0  0  0  0  0  0  0  0  0  0
    2.4726   -6.9473    1.3248 H   0  0  0  0  0  0  0  0  0  0  0  0
    0.7906   -7.1712   -1.2691 H   0  0  0  0  0  0  0  0  0  0  0  0
    1.9924   -8.4927   -0.9623 H   0  0  0  0  0  0  0  0  0  0  0  0
    0.2491   -8.9082   -1.1358 H   0  0  0  0  0  0  0  0  0  0  0  0
    0.5816   -9.8989    1.3794 H   0  0  0  0  0  0  0  0  0  0  0  0
    2.2335   -9.3496    0.9750 H   0  0  0  0  0  0  0  0  0  0  0  0
    1.4114   -8.7059    2.4708 H   0  0  0  0  0  0  0  0  0  0  0  0
   -5.4845   -1.8411   -3.9885 H   0  0  0  0  0  0  0  0  0  0  0  0
   -6.5612   -0.3206   -2.3054 H   0  0  0  0  0  0  0  0  0  0  0  0
   -5.2506   -0.6450   -1.1644 H   0  0  0  0  0  0  0  0  0  0  0  0
   -5.0738    0.9363   -3.8019 H   0  0  0  0  0  0  0  0  0  0  0  0
   -3.6272    0.6171   -2.7897 H   0  0  0  0  0  0  0  0  0  0  0  0
   -6.1633    2.1563   -2.0450 H   0  0  0  0  0  0  0  0  0  0  0  0
   -4.4954    2.8127   -2.3596 H   0  0  0  0  0  0  0  0  0  0  0  0
   -3.7120    1.4664   -0.3128 H   0  0  0  0  0  0  0  0  0  0  0  0
   -5.4133    1.0063   -0.0266 H   0  0  0  0  0  0  0  0  0  0  0  0
   -6.2315    3.1364    0.0925 H   0  0  0  0  0  0  0  0  0  0  0  0
   -4.6639    3.8589   -0.3092 H   0  0  0  0  0  0  0  0  0  0  0  0
   -5.3543    2.0009    2.0902 H   0  0  0  0  0  0  0  0  0  0  0  0
   -3.7177    2.7445    1.7521 H   0  0  0  0  0  0  0  0  0  0  0  0
   -6.2544    4.3754    2.2226 H   0  0  0  0  0  0  0  0  0  0  0  0
   -5.3476    3.7009    3.6109 H   0  0  0  0  0  0  0  0  0  0  0  0
   -3.4618    5.1306    3.2084 H   0  0  0  0  0  0  0  0  0  0  0  0
   -4.9905    5.9451    3.4278 H   0  0  0  0  0  0  0  0  0  0  0  0
   -3.8054    7.3328    2.0719 H   0  0  0  0  0  0  0  0  0  0  0  0
   -5.1419    6.6968    1.1346 H   0  0  0  0  0  0  0  0  0  0  0  0
   -3.0211    7.2196    0.0389 H   0  0  0  0  0  0  0  0  0  0  0  0
   -3.5994    5.6671   -0.4800 H   0  0  0  0  0  0  0  0  0  0  0  0
   -1.4948    6.5299    1.4797 H   0  0  0  0  0  0  0  0  0  0  0  0
   -1.8469    4.7550    1.3934 H   0  0  0  0  0  0  0  0  0  0  0  0
   -1.6814    4.8197   -1.1073 H   0  0  0  0  0  0  0  0  0  0  0  0
   -1.1119    6.5486   -0.9679 H   0  0  0  0  0  0  0  0  0  0  0  0
    0.2429    3.9063   -0.1301 H   0  0  0  0  0  0  0  0  0  0  0  0
    0.6484    4.9652   -1.4936 H   0  0  0  0  0  0  0  0  0  0  0  0
    2.3577    5.1609    0.1356 H   0  0  0  0  0  0  0  0  0  0  0  0
    1.4907    6.7414    0.0075 H   0  0  0  0  0  0  0  0  0  0  0  0
    0.4300    6.2144    2.2986 H   0  0  0  0  0  0  0  0  0  0  0  0
    1.3375    4.6586    2.2034 H   0  0  0  0  0  0  0  0  0  0  0  0
    2.4905    7.4474    2.0140 H   0  0  0  0  0  0  0  0  0  0  0  0
    3.4224    5.9251    2.0169 H   0  0  0  0  0  0  0  0  0  0  0  0
    3.0962    7.0739    4.3790 H   0  0  0  0  0  0  0  0  0  0  0  0
    2.4376    5.3752    4.2873 H   0  0  0  0  0  0  0  0  0  0  0  0
    1.3304    6.7743    4.1065 H   0  0  0  0  0  0  0  0  0  0  0  0
   -0.3266   -2.1063   -5.8739 H   0  0  0  0  0  0  0  0  0  0  0  0
    1.3911   -0.5753   -5.8747 H   0  0  0  0  0  0  0  0  0  0  0  0
    0.7956    0.4284   -4.5779 H   0  0  0  0  0  0  0  0  0  0  0  0
    2.0179   -2.3975   -4.4720 H   0  0  0  0  0  0  0  0  0  0  0  0
    2.8937   -0.9086   -4.1363 H   0  0  0  0  0  0  0  0  0  0  0  0
    0.7462   -2.2686   -2.3262 H   0  0  0  0  0  0  0  0  0  0  0  0
    2.4856   -2.1118   -2.1421 H   0  0  0  0  0  0  0  0  0  0  0  0
    0.4558    0.1877   -1.9996 H   0  0  0  0  0  0  0  0  0  0  0  0
    1.3034   -0.6794   -0.7228 H   0  0  0  0  0  0  0  0  0  0  0  0
    2.3232    1.5042   -1.2636 H   0  0  0  0  0  0  0  0  0  0  0  0
    2.6935    0.9878   -2.9071 H   0  0  0  0  0  0  0  0  0  0  0  0
    3.7330   -0.1320   -0.2481 H   0  0  0  0  0  0  0  0  0  0  0  0
    4.1050   -0.9449   -1.8713 H   0  0  0  0  0  0  0  0  0  0  0  0
    5.0378    1.1608   -2.6447 H   0  0  0  0  0  0  0  0  0  0  0  0
    4.6074    1.9831   -1.1287 H   0  0  0  0  0  0  0  0  0  0  0  0
    6.9900    1.4270   -1.2374 H   0  0  0  0  0  0  0  0  0  0  0  0
    6.6941   -0.2669   -1.6217 H   0  0  0  0  0  0  0  0  0  0  0  0
    5.7791   -0.5977    0.7349 H   0  0  0  0  0  0  0  0  0  0  0  0
    7.4372    0.0452    0.6346 H   0  0  0  0  0  0  0  0  0  0  0  0
    6.8754    2.2518    0.9989 H   0  0  0  0  0  0  0  0  0  0  0  0
    5.1085    1.9298    0.9430 H   0  0  0  0  0  0  0  0  0  0  0  0
    6.0675    2.1707    3.3384 H   0  0  0  0  0  0  0  0  0  0  0  0
    7.2088    0.8535    2.9231 H   0  0  0  0  0  0  0  0  0  0  0  0
    5.5301   -0.7432    2.7550 H   0  0  0  0  0  0  0  0  0  0  0  0
    5.3868    0.0994    4.3155 H   0  0  0  0  0  0  0  0  0  0  0  0
    3.6364    1.5632    3.5402 H   0  0  0  0  0  0  0  0  0  0  0  0
    3.5559    0.8188    1.9338 H   0  0  0  0  0  0  0  0  0  0  0  0
    1.8003   -0.0529    3.2703 H   0  0  0  0  0  0  0  0  0  0  0  0
    2.8680   -0.5475    4.5928 H   0  0  0  0  0  0  0  0  0  0  0  0
    2.8179   -1.5781    1.6916 H   0  0  0  0  0  0  0  0  0  0  0  0
    4.0556   -2.1331    2.8711 H   0  0  0  0  0  0  0  0  0  0  0  0
    2.3648   -3.7559    2.6937 H   0  0  0  0  0  0  0  0  0  0  0  0
    1.0354   -2.6172    3.0338 H   0  0  0  0  0  0  0  0  0  0  0  0
    1.5393   -2.5121    5.3421 H   0  0  0  0  0  0  0  0  0  0  0  0
    2.0028   -4.1735    4.8839 H   0  0  0  0  0  0  0  0  0  0  0  0
    3.3015   -2.9617    5.0468 H   0  0  0  0  0  0  0  0  0  0  0  0
   -6.6524   -2.5100   -1.9091 H   0  0  0  0  0  0  0  0  0  0  0  0
   -2.0297   -0.2045   -5.4897 H   0  0  0  0  0  0  0  0  0  0  0  0
   -4.1462   -6.1871   -0.3689 H   0  0  0  0  0  0  0  0  0  0  0  0
   -2.9361   -3.6216   -0.4633 H   0  0  0  0  0  0  0  0  0  0  0  0
   -3.5133   -5.3629   -2.5059 H   0  0  0  0  0  0  0  0  0  0  0  0
  1  2  1  0
  1 52  1  0
  2  3  1  0
  2 46  1  0
  3 47  1  0
  4  5  1  0
  4 53  1  0
 45  5  1  6
  6 45  1  0
  7 45  1  0
  8 45  1  0
  9 10  1  0
  9 47  1  0
  9 48  1  0
 10 11  1  0
 11 12  1  0
 12 13  1  0
 13 14  1  0
 14 15  1  0
 15 16  1  0
 16 17  1  0
 17 18  1  0
 18 19  1  0
 19 20  1  0
 20 21  1  0
 21 22  1  0
 22 23  1  0
 23 24  1  0
 24 25  1  0
 25 26  1  0
 27 28  1  0
 27 46  1  0
 27 49  1  0
 28 29  1  0
 29 30  1  0
 30 31  1  0
 31 32  1  0
 32 33  1  0
 33 34  1  0
 34 35  1  0
 35 36  1  0
 36 37  1  0
 37 38  1  0
 38 39  1  0
 39 40  1  0
 40 41  1  0
 41 42  1  0
 42 43  1  0
 43 44  1  0
 50 54  1  0
 51 54  1  0
 52 54  1  0
 53 54  1  0
  1 55  1  0
  1 56  1  0
  2 57  1  6
  3 58  1  0
  3 59  1  0
  4 60  1  0
  4 61  1  0
  5 62  1  0
  5 63  1  0
  6 64  1  0
  6 65  1  0
  6 66  1  0
  7 67  1  0
  7 68  1  0
  7 69  1  0
  8 70  1  0
  8 71  1  0
  8 72  1  0
  9 73  1  0
 10 74  1  0
 10 75  1  0
 11 76  1  0
 11 77  1  0
 12 78  1  0
 12 79  1  0
 13 80  1  0
 13 81  1  0
 14 82  1  0
 14 83  1  0
 15 84  1  0
 15 85  1  0
 16 86  1  0
 16 87  1  0
 17 88  1  0
 17 89  1  0
 18 90  1  0
 18 91  1  0
 19 92  1  0
 19 93  1  0
 20 94  1  0
 20 95  1  0
 21 96  1  0
 21 97  1  0
 22 98  1  0
 22 99  1  0
 23100  1  0
 23101  1  0
 24102  1  0
 24103  1  0
 25104  1  0
 25105  1  0
 26106  1  0
 26107  1  0
 26108  1  0
 27109  1  6
 28110  1  0
 28111  1  0
 29112  1  0
 29113  1  0
 30114  1  0
 30115  1  0
 31116  1  0
 31117  1  0
 32118  1  0
 32119  1  0
 33120  1  0
 33121  1  0
 34122  1  0
 34123  1  0
 35124  1  0
 35125  1  0
 36126  1  0
 36127  1  0
 37128  1  0
 37129  1  0
 38130  1  0
 38131  1  0
 39132  1  0
 39133  1  0
 40134  1  0
 40135  1  0
 41136  1  0
 41137  1  0
 42138  1  0
 42139  1  0
 43140  1  0
 43141  1  0
 44142  1  0
 44143  1  0
 44144  1  0
 48145  1  0
 49146  1  0
 50147  1  0
 51148  1  0
 54149  1  0
M  CHG  1  45   1
M  END
$$$$
PHOSPHATIDYLCHOLINE TRANSFER PROTEIN
     RDKit          3D

149148  0  0  0  0  0  0  0  0999 V2000
   -0.5026   -2.6251   -0.9682 C   0  0  0  0  0  0  0  0  0  0  0  0
   -1.1565   -2.6403    0.4157 C   0  0  1  0  0  0  0  0  0  0  0  0
   -0.1367   -2.8053    1.4249 C   0  0  0  0  0  0  0  0  0  0  0  0
   -3.1964   -6.2273   -2.4832 C   0  0  0  0  0  0  0  0  0  0  0  0
   -4.1490   -6.8798   -1.5039 C   0  0  0  0  0  0  0  0  0  0  0  0
   -4.9810   -8.3967   -3.1922 C   0  0  0  0  0  0  0  0  0  0  0  0
   -6.1727   -6.4722   -2.6700 C   0  0  0  0  0  0  0  0  0  0  0  0
   -6.0980   -8.2221   -1.1591 C   0  0  0  0  0  0  0  0  0  0  0  0
    0.6767   -3.5797    3.3481 C   0  0  0  0  0  0  0  0  0  0  0  0
    1.0250   -3.0496    4.6441 C   0  0  0  0  0  0  0  0  0  0  0  0
    1.1853   -1.5490    4.7982 C   0  0  0  0  0  0  0  0  0  0  0  0
    1.6488   -1.2312    6.1931 C   0  0  0  0  0  0  0  0  0  0  0  0
    1.8711    0.1955    6.5040 C   0  0  0  0  0  0  0  0  0  0  0  0
    2.8858    0.8044    5.5350 C   0  0  0  0  0  0  0  0  0  0  0  0
    3.2272    2.1865    5.9311 C   0  0  0  0  0  0  0  0  0  0  0  0
    4.1259    2.9144    4.9927 C   0  0  0  0  0  0  0  0  0  0  0  0
    3.4420    3.1195    3.6698 C   0  0  0  0  0  0  0  0  0  0  0  0
    4.2008    3.9350    2.6995 C   0  0  0  0  0  0  0  0  0  0  0  0
    5.5001    3.4288    2.1659 C   0  0  0  0  0  0  0  0  0  0  0  0
    6.1109    4.5156    1.2905 C   0  0  0  0  0  0  0  0  0  0  0  0
    7.3640    4.1897    0.5880 C   0  0  0  0  0  0  0  0  0  0  0  0
    7.1856    3.0925   -0.4573 C   0  0  0  0  0  0  0  0  0  0  0  0
    8.5328    2.8618   -1.1595 C   0  0  0  0  0  0  0  0  0  0  0  0
    8.4453    1.8490   -2.2553 C   0  0  0  0  0  0  0  0  0  0  0  0
    7.4814    2.2822   -3.3481 C   0  0  0  0  0  0  0  0  0  0  0  0
    7.3987    1.2662   -4.4562 C   0  0  0  0  0  0  0  0  0  0  0  0
   -3.4036   -2.4057    0.3219 C   0  0  1  0  0  0  0  0  0  0  0  0
   -4.1355   -1.5640   -0.6821 C   0  0  0  0  0  0  0  0  0  0  0  0
   -4.5677   -0.2199   -0.1380 C   0  0  0  0  0  0  0  0  0  0  0  0
   -5.2080    0.6153   -1.1619 C   0  0  0  0  0  0  0  0  0  0  0  0
   -4.3349    1.7323   -1.7812 C   0  0  0  0  0  0  0  0  0  0  0  0
   -4.0280    2.6908   -0.6853 C   0  0  0  0  0  0  0  0  0  0  0  0
   -3.3575    3.9586   -1.0908 C   0  0  0  0  0  0  0  0  0  0  0  0
   -3.2155    4.8133    0.2010 C   0  0  0  0  0  0  0  0  0  0  0  0
   -2.2341    4.2504    1.1623 C   0  0  0  0  0  0  0  0  0  0  0  0
   -0.8052    4.5772    0.7000 C   0  0  0  0  0  0  0  0  0  0  0  0
    0.2049    3.9184    1.5649 C   0  0  0  0  0  0  0  0  0  0  0  0
    0.3033    2.4111    1.2942 C   0  0  0  0  0  0  0  0  0  0  0  0
    0.9652    2.3754   -0.0916 C   0  0  0  0  0  0  0  0  0  0  0  0
    1.1689    0.9915   -0.6195 C   0  0  0  0  0  0  0  0  0  0  0  0
    1.9211    1.0071   -1.9243 C   0  0  0  0  0  0  0  0  0  0  0  0
    2.1901   -0.3196   -2.5468 C   0  0  0  0  0  0  0  0  0  0  0  0
    3.0583   -0.1680   -3.8027 C   0  0  0  0  0  0  0  0  0  0  0  0
    3.3242   -1.4980   -4.4385 C   0  0  0  0  0  0  0  0  0  0  0  0
   -5.2850   -7.4917   -2.0989 N   0  0  2  0  0  0  0  0  0  0  0  0
   -2.1817   -1.7862    0.6041 O   0  0  0  0  0  0  0  0  0  0  0  0
   -0.4892   -3.2339    2.7121 O   0  0  0  0  0  0  0  0  0  0  0  0
    0.6275   -5.0027    3.4722 O   0  0  0  0  0  0  0  0  0  0  0  0
   -4.2570   -2.4154    1.4433 O   0  0  0  0  0  0  0  0  0  0  0  0
    0.1082   -5.1891   -3.3464 O   0  0  0  0  0  0  0  0  0  0  0  0
   -1.9747   -4.2299   -3.9064 O   0  0  0  0  0  0  0  0  0  0  0  0
   -1.4339   -2.9802   -1.9441 O   0  0  0  0  0  0  0  0  0  0  0  0
   -2.1618   -5.6989   -1.7190 O   0  0  0  0  0  0  0  0  0  0  0  0
   -1.1930   -4.5764   -2.4608 P   0  0  0  0  0  0  0  0  0  0  0  0
   -0.0132   -1.6739   -1.1738 H   0  0  0  0  0  0  0  0  0  0  0  0
    0.2704   -3.4102   -0.9509 H   0  0  0  0  0  0  0  0  0  0  0  0
   -1.7052   -3.6775    0.3352 H   0  0  0  0  0  0  0  0  0  0  0  0
    0.4663   -1.8637    1.6289 H   0  0  0  0  0  0  0  0  0  0  0  0
    0.6852   -3.5457    1.1225 H   0  0  0  0  0  0  0  0  0  0  0  0
   -2.6953   -6.9976   -3.1317 H   0  0  0  0  0  0  0  0  0  0  0  0
   -3.7472   -5.5137   -3.0987 H   0  0  0  0  0  0  0  0  0  0  0  0
   -4.5227   -6.0763   -0.8204 H   0  0  0  0  0  0  0  0  0  0  0  0
   -3.6343   -7.6204   -0.8636 H   0  0  0  0  0  0  0  0  0  0  0  0
   -5.9859   -8.6186   -3.6667 H   0  0  0  0  0  0  0  0  0  0  0  0
   -4.5298   -9.3396   -2.8564 H   0  0  0  0  0  0  0  0  0  0  0  0
   -4.4000   -7.8717   -3.9578 H   0  0  0  0  0  0  0  0  0  0  0  0
   -5.7021   -5.9680   -3.5227 H   0  0  0  0  0  0  0  0  0  0  0  0
   -7.0447   -7.0694   -3.0808 H   0  0  0  0  0  0  0  0  0  0  0  0
   -6.5559   -5.7587   -1.9281 H   0  0  0  0  0  0  0  0  0  0  0  0
   -6.3864   -7.6394   -0.2652 H   0  0  0  0  0  0  0  0  0  0  0  0
   -7.0773   -8.3995   -1.6927 H   0  0  0  0  0  0  0  0  0  0  0  0
   -5.6988   -9.2346   -0.9388 H   0  0  0  0  0  0  0  0  0  0  0  0
    1.5625   -3.4378    2.6486 H   0  0  0  0  0  0  0  0  0  0  0  0
    2.0336   -3.4777    4.9614 H   0  0  0  0  0  0  0  0  0  0  0  0
    0.2806   -3.4170    5.4211 H   0  0  0  0  0  0  0  0  0  0  0  0
    0.2318   -1.0319    4.6098 H   0  0  0  0  0  0  0  0  0  0  0  0
    1.9996   -1.2637    4.1115 H   0  0  0  0  0  0  0  0  0  0  0  0
    0.9847   -1.7234    6.9633 H   0  0  0  0  0  0  0  0  0  0  0  0
    2.6415   -1.7552    6.3697 H   0  0  0  0  0  0  0  0  0  0  0  0
    0.9537    0.8021    6.3657 H   0  0  0  0  0  0  0  0  0  0  0  0
    2.3054    0.3174    7.5143 H   0  0  0  0  0  0  0  0  0  0  0  0
    2.4291    0.7683    4.5406 H   0  0  0  0  0  0  0  0  0  0  0  0
    3.7979    0.1764    5.5162 H   0  0  0  0  0  0  0  0  0  0  0  0
    3.7449    2.1970    6.9324 H   0  0  0  0  0  0  0  0  0  0  0  0
    2.2676    2.7651    6.0538 H   0  0  0  0  0  0  0  0  0  0  0  0
    4.3048    3.9521    5.4094 H   0  0  0  0  0  0  0  0  0  0  0  0
    5.1293    2.4529    4.8864 H   0  0  0  0  0  0  0  0  0  0  0  0
    3.1083    2.1476    3.2256 H   0  0  0  0  0  0  0  0  0  0  0  0
    2.4874    3.6558    3.8811 H   0  0  0  0  0  0  0  0  0  0  0  0
    4.3090    4.9738    3.1307 H   0  0  0  0  0  0  0  0  0  0  0  0
    3.5203    4.0902    1.8104 H   0  0  0  0  0  0  0  0  0  0  0  0
    6.1992    3.2460    3.0336 H   0  0  0  0  0  0  0  0  0  0  0  0
    5.3383    2.4788    1.6299 H   0  0  0  0  0  0  0  0  0  0  0  0
    5.3767    4.9022    0.5692 H   0  0  0  0  0  0  0  0  0  0  0  0
    6.2455    5.3877    2.0136 H   0  0  0  0  0  0  0  0  0  0  0  0
    8.1637    3.8306    1.2700 H   0  0  0  0  0  0  0  0  0  0  0  0
    7.7378    5.0932    0.0798 H   0  0  0  0  0  0  0  0  0  0  0  0
    6.3940    3.3210   -1.1653 H   0  0  0  0  0  0  0  0  0  0  0  0
    6.9569    2.1468    0.0722 H   0  0  0  0  0  0  0  0  0  0  0  0
    9.2388    2.5062   -0.3951 H   0  0  0  0  0  0  0  0  0  0  0  0
    8.8175    3.8598   -1.5638 H   0  0  0  0  0  0  0  0  0  0  0  0
    8.1657    0.8740   -1.8229 H   0  0  0  0  0  0  0  0  0  0  0  0
    9.4644    1.7531   -2.6835 H   0  0  0  0  0  0  0  0  0  0  0  0
    7.8909    3.2417   -3.7933 H   0  0  0  0  0  0  0  0  0  0  0  0
    6.4773    2.4937   -3.0055 H   0  0  0  0  0  0  0  0  0  0  0  0
    6.3306    1.1780   -4.8199 H   0  0  0  0  0  0  0  0  0  0  0  0
    7.7830    0.2660   -4.1657 H   0  0  0  0  0  0  0  0  0  0  0  0
    7.9809    1.6370   -5.3318 H   0  0  0  0  0  0  0  0  0  0  0  0
   -3.2783   -3.4181   -0.0449 H   0  0  0  0  0  0  0  0  0  0  0  0
   -5.1001   -2.0618   -0.9920 H   0  0  0  0  0  0  0  0  0  0  0  0
   -3.5957   -1.3685   -1.6117 H   0  0  0  0  0  0  0  0  0  0  0  0
   -3.7368    0.2676    0.4318 H   0  0  0  0  0  0  0  0  0  0  0  0
   -5.3450   -0.3881    0.6720 H   0  0  0  0  0  0  0  0  0  0  0  0
   -5.4090   -0.0524   -2.0530 H   0  0  0  0  0  0  0  0  0  0  0  0
   -6.1882    1.0596   -0.9150 H   0  0  0  0  0  0  0  0  0  0  0  0
   -4.9746    2.2243   -2.5313 H   0  0  0  0  0  0  0  0  0  0  0  0
   -3.4586    1.3106   -2.2614 H   0  0  0  0  0  0  0  0  0  0  0  0
   -3.3407    2.1969    0.0625 H   0  0  0  0  0  0  0  0  0  0  0  0
   -4.9606    2.8795   -0.0905 H   0  0  0  0  0  0  0  0  0  0  0  0
   -3.9774    4.5652   -1.7687 H   0  0  0  0  0  0  0  0  0  0  0  0
   -2.3505    3.7754   -1.4591 H   0  0  0  0  0  0  0  0  0  0  0  0
   -2.8629    5.8020   -0.1444 H   0  0  0  0  0  0  0  0  0  0  0  0
   -4.2015    4.9429    0.6681 H   0  0  0  0  0  0  0  0  0  0  0  0
   -2.3288    3.2030    1.4271 H   0  0  0  0  0  0  0  0  0  0  0  0
   -2.3386    4.8486    2.1100 H   0  0  0  0  0  0  0  0  0  0  0  0
   -0.7402    4.3776   -0.3580 H   0  0  0  0  0  0  0  0  0  0  0  0
   -0.6801    5.6944    0.8439 H   0  0  0  0  0  0  0  0  0  0  0  0
    1.2081    4.3302    1.2667 H   0  0  0  0  0  0  0  0  0  0  0  0
    0.0326    4.1050    2.6284 H   0  0  0  0  0  0  0  0  0  0  0  0
   -0.6840    1.9168    1.2681 H   0  0  0  0  0  0  0  0  0  0  0  0
    0.9332    1.9524    2.0683 H   0  0  0  0  0  0  0  0  0  0  0  0
    1.9979    2.8116    0.1140 H   0  0  0  0  0  0  0  0  0  0  0  0
    0.5227    3.0454   -0.8163 H   0  0  0  0  0  0  0  0  0  0  0  0
    1.6786    0.3531    0.0975 H   0  0  0  0  0  0  0  0  0  0  0  0
    0.1338    0.5744   -0.7766 H   0  0  0  0  0  0  0  0  0  0  0  0
    1.2446    1.5583   -2.6531 H   0  0  0  0  0  0  0  0  0  0  0  0
    2.8182    1.6459   -1.8533 H   0  0  0  0  0  0  0  0  0  0  0  0
    1.2437   -0.7921   -2.9530 H   0  0  0  0  0  0  0  0  0  0  0  0
    2.6076   -1.0090   -1.8188 H   0  0  0  0  0  0  0  0  0  0  0  0
    4.0350    0.2575   -3.4298 H   0  0  0  0  0  0  0  0  0  0  0  0
    2.6211    0.5523   -4.4866 H   0  0  0  0  0  0  0  0  0  0  0  0
    3.8202   -2.1475   -3.6757 H   0  0  0  0  0  0  0  0  0  0  0  0
    2.3887   -1.9604   -4.7890 H   0  0  0  0  0  0  0  0  0  0  0  0
    4.0529   -1.3622   -5.2614 H   0  0  0  0  0  0  0  0  0  0  0  0
    0.8315   -5.2893    4.4039 H   0  0  0  0  0  0  0  0  0  0  0  0
   -5.1737   -2.5938    1.0788 H   0  0  0  0  0  0  0  0  0  0  0  0
    0.9254   -4.9651   -2.8293 H   0  0  0  0  0  0  0  0  0  0  0  0
   -2.2654   -5.0437   -4.4103 H   0  0  0  0  0  0  0  0  0  0  0  0
   -0.9930   -5.6698   -1.5749 H   0  0  0  0  0  0  0  0  0  0  0  0
  1  2  1  0
  1 52  1  0
  2  3  1  0
  2 46  1  0
  3 47  1  0
  4  5  1  0
  4 53  1  0
 45  5  1  1
  6 45  1  0
  7 45  1  0
  8 45  1  0
  9 10  1  0
  9 47  1  0
  9 48  1  0
 10 11  1  0
 11 12  1  0
 12 13  1  0
 13 14  1  0
 14 15  1  0
 15 16  1  0
 16 17  1  0
 17 18  1  0
 18 19  1  0
 19 20  1  0
 20 21  1  0
 21 22  1  0
 22 23  1  0
 23 24  1  0
 24 25  1  0
 25 26  1  0
 27 28  1  0
 27 46  1  0
 27 49  1  0
 28 29  1  0
 29 30  1  0
 30 31  1  0
 31 32  1  0
 32 33  1  0
 33 34  1  0
 34 35  1  0
 35 36  1  0
 36 37  1  0
 37 38  1  0
 38 39  1  0
 39 40  1  0
 40 41  1  0
 41 42  1  0
 42 43  1  0
 43 44  1  0
 50 54  1  0
 51 54  1  0
 52 54  1  0
 53 54  1  0
  1 55  1  0
  1 56  1  0
  2 57  1  6
  3 58  1  0
  3 59  1  0
  4 60  1  0
  4 61  1  0
  5 62  1  0
  5 63  1  0
  6 64  1  0
  6 65  1  0
  6 66  1  0
  7 67  1  0
  7 68  1  0
  7 69  1  0
  8 70  1  0
  8 71  1  0
  8 72  1  0
  9 73  1  0
 10 74  1  0
 10 75  1  0
 11 76  1  0
 11 77  1  0
 12 78  1  0
 12 79  1  0
 13 80  1  0
 13 81  1  0
 14 82  1  0
 14 83  1  0
 15 84  1  0
 15 85  1  0
 16 86  1  0
 16 87  1  0
 17 88  1  0
 17 89  1  0
 18 90  1  0
 18 91  1  0
 19 92  1  0
 19 93  1  0
 20 94  1  0
 20 95  1  0
 21 96  1  0
 21 97  1  0
 22 98  1  0
 22 99  1  0
 23100  1  0
 23101  1  0
 24102  1  0
 24103  1  0
 25104  1  0
 25105  1  0
 26106  1  0
 26107  1  0
 26108  1  0
 27109  1  6
 28110  1  0
 28111  1  0
 29112  1  0
 29113  1  0
 30114  1  0
 30115  1  0
 31116  1  0
 31117  1  0
 32118  1  0
 32119  1  0
 33120  1  0
 33121  1  0
 34122  1  0
 34123  1  0
 35124  1  0
 35125  1  0
 36126  1  0
 36127  1  0
 37128  1  0
 37129  1  0
 38130  1  0
 38131  1  0
 39132  1  0
 39133  1  0
 40134  1  0
 40135  1  0
 41136  1  0
 41137  1  0
 42138  1  0
 42139  1  0
 43140  1  0
 43141  1  0
 44142  1  0
 44143  1  0
 44144  1  0
 48145  1  0
 49146  1  0
 50147  1  0
 51148  1  0
 54149  1  0
M  CHG  1  45   1
M  END
$$$$
PHOSPHATIDYLCHOLINE TRANSFER PROTEIN
     RDKit          3D

149148  0  0  0  0  0  0  0  0999 V2000
   -0.8054   -4.9857    3.3636 C   0  0  0  0  0  0  0  0  0  0  0  0
   -0.5311   -5.3864    1.9946 C   0  0  1  0  0  0  0  0  0  0  0  0
    0.9808   -5.6144    1.7876 C   0  0  0  0  0  0  0  0  0  0  0  0
    0.2913   -2.5135    5.5678 C   0  0  0  0  0  0  0  0  0  0  0  0
    1.0615   -1.3661    6.1297 C   0  0  0  0  0  0  0  0  0  0  0  0
    3.0856   -1.8258    7.2212 C   0  0  0  0  0  0  0  0  0  0  0  0
    3.0870   -0.2131    5.5480 C   0  0  0  0  0  0  0  0  0  0  0  0
    2.8712   -2.4622    4.9649 C   0  0  0  0  0  0  0  0  0  0  0  0
    2.7062   -5.1821    0.2924 C   0  0  0  0  0  0  0  0  0  0  0  0
    3.2022   -4.0668   -0.5721 C   0  0  0  0  0  0  0  0  0  0  0  0
    2.8930   -2.6569   -0.1779 C   0  0  0  0  0  0  0  0  0  0  0  0
    1.4127   -2.3494   -0.1415 C   0  0  0  0  0  0  0  0  0  0  0  0
    1.1506   -0.8915    0.1867 C   0  0  0  0  0  0  0  0  0  0  0  0
   -0.3421   -0.6018    0.2147 C   0  0  0  0  0  0  0  0  0  0  0  0
   -0.6589    0.8284    0.5219 C   0  0  0  0  0  0  0  0  0  0  0  0
   -2.1395    1.1363    0.5554 C   0  0  0  0  0  0  0  0  0  0  0  0
   -2.9083    0.3826    1.5796 C   0  0  0  0  0  0  0  0  0  0  0  0
   -4.3440    0.7349    1.5846 C   0  0  0  0  0  0  0  0  0  0  0  0
   -4.9504    1.9158    2.1115 C   0  0  0  0  0  0  0  0  0  0  0  0
   -4.5517    3.3264    1.8906 C   0  0  0  0  0  0  0  0  0  0  0  0
   -3.3329    3.7932    2.6215 C   0  0  0  0  0  0  0  0  0  0  0  0
   -3.0667    5.2480    2.3269 C   0  0  0  0  0  0  0  0  0  0  0  0
   -2.7807    5.5251    0.8938 C   0  0  0  0  0  0  0  0  0  0  0  0
   -2.5169    7.0128    0.6587 C   0  0  0  0  0  0  0  0  0  0  0  0
   -2.2092    7.2518   -0.8040 C   0  0  0  0  0  0  0  0  0  0  0  0
   -0.9930    6.5062   -1.2591 C   0  0  0  0  0  0  0  0  0  0  0  0
   -1.4641   -5.6047   -0.0416 C   0  0  1  0  0  0  0  0  0  0  0  0
   -2.7816   -5.0586   -0.5092 C   0  0  0  0  0  0  0  0  0  0  0  0
   -2.5068   -4.6126   -1.9679 C   0  0  0  0  0  0  0  0  0  0  0  0
   -3.7642   -4.0254   -2.5206 C   0  0  0  0  0  0  0  0  0  0  0  0
   -3.6310   -3.6625   -3.9798 C   0  0  0  0  0  0  0  0  0  0  0  0
   -2.5573   -2.6904   -4.2817 C   0  0  0  0  0  0  0  0  0  0  0  0
   -2.6687   -1.3443   -3.6426 C   0  0  0  0  0  0  0  0  0  0  0  0
   -1.4715   -0.5255   -4.1122 C   0  0  0  0  0  0  0  0  0  0  0  0
   -1.4681    0.8659   -3.5589 C   0  0  0  0  0  0  0  0  0  0  0  0
   -0.2375    1.6461   -4.0644 C   0  0  0  0  0  0  0  0  0  0  0  0
   -0.2572    3.0435   -3.4971 C   0  0  0  0  0  0  0  0  0  0  0  0
    0.9216    3.8860   -3.9513 C   0  0  0  0  0  0  0  0  0  0  0  0
    2.1866    3.2365   -3.5188 C   0  0  0  0  0  0  0  0  0  0  0  0
    3.4444    3.9600   -3.9008 C   0  0  0  0  0  0  0  0  0  0  0  0
    4.5952    3.1644   -3.3255 C   0  0  0  0  0  0  0  0  0  0  0  0
    5.9430    3.7767   -3.6227 C   0  0  0  0  0  0  0  0  0  0  0  0
    6.1249    5.1615   -3.0877 C   0  0  0  0  0  0  0  0  0  0  0  0
    7.5082    5.7171   -3.4404 C   0  0  0  0  0  0  0  0  0  0  0  0
    2.4745   -1.4639    5.9353 N   0  0  2  0  0  0  0  0  0  0  0  0
   -1.3562   -6.1293    1.2139 O   0  0  0  0  0  0  0  0  0  0  0  0
    1.3644   -5.2694    0.5043 O   0  0  0  0  0  0  0  0  0  0  0  0
    3.1420   -6.3929   -0.3319 O   0  0  0  0  0  0  0  0  0  0  0  0
   -1.1133   -6.6092   -0.9822 O   0  0  0  0  0  0  0  0  0  0  0  0
   -2.9520   -2.7976    6.0438 O   0  0  0  0  0  0  0  0  0  0  0  0
   -1.3062   -4.9337    6.4249 O   0  0  0  0  0  0  0  0  0  0  0  0
   -1.8006   -4.0516    3.6151 O   0  0  0  0  0  0  0  0  0  0  0  0
   -1.0991   -2.4447    5.7500 O   0  0  0  0  0  0  0  0  0  0  0  0
   -1.9000   -3.8381    5.2970 P   0  0  0  0  0  0  0  0  0  0  0  0
    0.1487   -4.6873    3.8845 H   0  0  0  0  0  0  0  0  0  0  0  0
   -1.0752   -5.9508    3.9457 H   0  0  0  0  0  0  0  0  0  0  0  0
   -0.5727   -4.3605    1.3743 H   0  0  0  0  0  0  0  0  0  0  0  0
    1.5267   -5.0344    2.5226 H   0  0  0  0  0  0  0  0  0  0  0  0
    1.1896   -6.7088    1.9786 H   0  0  0  0  0  0  0  0  0  0  0  0
    0.5762   -3.5134    5.9557 H   0  0  0  0  0  0  0  0  0  0  0  0
    0.4088   -2.4294    4.4424 H   0  0  0  0  0  0  0  0  0  0  0  0
    0.6978   -0.4516    5.5701 H   0  0  0  0  0  0  0  0  0  0  0  0
    0.8174   -1.1298    7.1958 H   0  0  0  0  0  0  0  0  0  0  0  0
    2.4374   -2.5642    7.6958 H   0  0  0  0  0  0  0  0  0  0  0  0
    4.0646   -2.3201    6.9447 H   0  0  0  0  0  0  0  0  0  0  0  0
    3.2500   -0.8933    7.8104 H   0  0  0  0  0  0  0  0  0  0  0  0
    3.8781   -0.3872    4.7681 H   0  0  0  0  0  0  0  0  0  0  0  0
    3.4854    0.3803    6.3983 H   0  0  0  0  0  0  0  0  0  0  0  0
    2.3422    0.4403    5.0203 H   0  0  0  0  0  0  0  0  0  0  0  0
    3.9779   -2.4285    4.9044 H   0  0  0  0  0  0  0  0  0  0  0  0
    2.5060   -2.2168    3.9452 H   0  0  0  0  0  0  0  0  0  0  0  0
    2.6297   -3.4984    5.2573 H   0  0  0  0  0  0  0  0  0  0  0  0
    3.2128   -5.2285    1.3078 H   0  0  0  0  0  0  0  0  0  0  0  0
    2.8888   -4.2172   -1.6483 H   0  0  0  0  0  0  0  0  0  0  0  0
    4.3410   -4.1228   -0.6600 H   0  0  0  0  0  0  0  0  0  0  0  0
    3.4498   -1.9230   -0.8027 H   0  0  0  0  0  0  0  0  0  0  0  0
    3.2306   -2.5579    0.8867 H   0  0  0  0  0  0  0  0  0  0  0  0
    0.9693   -3.0053    0.6370 H   0  0  0  0  0  0  0  0  0  0  0  0
    1.0001   -2.6651   -1.1114 H   0  0  0  0  0  0  0  0  0  0  0  0
    1.5812   -0.2955   -0.6424 H   0  0  0  0  0  0  0  0  0  0  0  0
    1.6424   -0.5860    1.1160 H   0  0  0  0  0  0  0  0  0  0  0  0
   -0.7937   -1.2272    1.0022 H   0  0  0  0  0  0  0  0  0  0  0  0
   -0.8262   -0.9394   -0.7349 H   0  0  0  0  0  0  0  0  0  0  0  0
   -0.2585    1.1213    1.5058 H   0  0  0  0  0  0  0  0  0  0  0  0
   -0.2378    1.4889   -0.2628 H   0  0  0  0  0  0  0  0  0  0  0  0
   -2.2973    2.1898    0.5723 H   0  0  0  0  0  0  0  0  0  0  0  0
   -2.6025    0.8081   -0.4454 H   0  0  0  0  0  0  0  0  0  0  0  0
   -2.4563    0.4566    2.6028 H   0  0  0  0  0  0  0  0  0  0  0  0
   -2.8328   -0.7343    1.3257 H   0  0  0  0  0  0  0  0  0  0  0  0
   -4.9351   -0.1910    2.0241 H   0  0  0  0  0  0  0  0  0  0  0  0
   -4.7485    0.6277    0.4859 H   0  0  0  0  0  0  0  0  0  0  0  0
   -6.0624    1.8989    1.7484 H   0  0  0  0  0  0  0  0  0  0  0  0
   -5.1741    1.8003    3.2606 H   0  0  0  0  0  0  0  0  0  0  0  0
   -5.3768    4.0435    2.2182 H   0  0  0  0  0  0  0  0  0  0  0  0
   -4.4899    3.5545    0.7859 H   0  0  0  0  0  0  0  0  0  0  0  0
   -2.4626    3.2037    2.4427 H   0  0  0  0  0  0  0  0  0  0  0  0
   -3.6077    3.7351    3.7461 H   0  0  0  0  0  0  0  0  0  0  0  0
   -2.1708    5.5672    2.9427 H   0  0  0  0  0  0  0  0  0  0  0  0
   -3.9591    5.8686    2.6685 H   0  0  0  0  0  0  0  0  0  0  0  0
   -3.5916    5.1808    0.2523 H   0  0  0  0  0  0  0  0  0  0  0  0
   -1.8533    4.9987    0.6151 H   0  0  0  0  0  0  0  0  0  0  0  0
   -3.4243    7.6167    0.9144 H   0  0  0  0  0  0  0  0  0  0  0  0
   -1.6740    7.3629    1.2674 H   0  0  0  0  0  0  0  0  0  0  0  0
   -3.0907    6.9622   -1.4353 H   0  0  0  0  0  0  0  0  0  0  0  0
   -2.0036    8.3435   -0.9324 H   0  0  0  0  0  0  0  0  0  0  0  0
   -1.2437    5.4607   -1.5436 H   0  0  0  0  0  0  0  0  0  0  0  0
   -0.6292    6.9787   -2.2149 H   0  0  0  0  0  0  0  0  0  0  0  0
   -0.2016    6.5252   -0.4681 H   0  0  0  0  0  0  0  0  0  0  0  0
   -0.7615   -4.7134   -0.1729 H   0  0  0  0  0  0  0  0  0  0  0  0
   -3.1549   -4.1973    0.0625 H   0  0  0  0  0  0  0  0  0  0  0  0
   -3.5757   -5.8333   -0.6082 H   0  0  0  0  0  0  0  0  0  0  0  0
   -2.1562   -5.4514   -2.5806 H   0  0  0  0  0  0  0  0  0  0  0  0
   -1.6776   -3.8478   -1.9608 H   0  0  0  0  0  0  0  0  0  0  0  0
   -3.9199   -3.0636   -1.9920 H   0  0  0  0  0  0  0  0  0  0  0  0
   -4.5878   -4.7339   -2.3762 H   0  0  0  0  0  0  0  0  0  0  0  0
   -3.3675   -4.6206   -4.5212 H   0  0  0  0  0  0  0  0  0  0  0  0
   -4.6168   -3.3588   -4.4102 H   0  0  0  0  0  0  0  0  0  0  0  0
   -2.4057   -2.5242   -5.3743 H   0  0  0  0  0  0  0  0  0  0  0  0
   -1.5962   -3.1523   -3.9172 H   0  0  0  0  0  0  0  0  0  0  0  0
   -2.5774   -1.4522   -2.5364 H   0  0  0  0  0  0  0  0  0  0  0  0
   -3.6139   -0.8188   -3.8154 H   0  0  0  0  0  0  0  0  0  0  0  0
   -0.5793   -1.0295   -3.7283 H   0  0  0  0  0  0  0  0  0  0  0  0
   -1.4619   -0.5453   -5.2025 H   0  0  0  0  0  0  0  0  0  0  0  0
   -2.3560    1.4448   -3.8745 H   0  0  0  0  0  0  0  0  0  0  0  0
   -1.3927    0.8792   -2.4697 H   0  0  0  0  0  0  0  0  0  0  0  0
   -0.2448    1.7182   -5.1700 H   0  0  0  0  0  0  0  0  0  0  0  0
    0.6641    1.0587   -3.7853 H   0  0  0  0  0  0  0  0  0  0  0  0
   -1.2147    3.5478   -3.8274 H   0  0  0  0  0  0  0  0  0  0  0  0
   -0.3537    2.9587   -2.4049 H   0  0  0  0  0  0  0  0  0  0  0  0
    0.8620    4.1875   -5.0097 H   0  0  0  0  0  0  0  0  0  0  0  0
    0.8484    4.8578   -3.3719 H   0  0  0  0  0  0  0  0  0  0  0  0
    2.1362    3.0352   -2.4276 H   0  0  0  0  0  0  0  0  0  0  0  0
    2.2573    2.2371   -4.0062 H   0  0  0  0  0  0  0  0  0  0  0  0
    3.4212    5.0110   -3.5913 H   0  0  0  0  0  0  0  0  0  0  0  0
    3.5533    3.9905   -5.0266 H   0  0  0  0  0  0  0  0  0  0  0  0
    4.6266    2.1444   -3.7947 H   0  0  0  0  0  0  0  0  0  0  0  0
    4.4701    3.0234   -2.2456 H   0  0  0  0  0  0  0  0  0  0  0  0
    6.1846    3.7710   -4.7086 H   0  0  0  0  0  0  0  0  0  0  0  0
    6.7042    3.1065   -3.1424 H   0  0  0  0  0  0  0  0  0  0  0  0
    6.0071    5.2231   -2.0030 H   0  0  0  0  0  0  0  0  0  0  0  0
    5.3733    5.8042   -3.6243 H   0  0  0  0  0  0  0  0  0  0  0  0
    8.3142    5.1061   -3.0218 H   0  0  0  0  0  0  0  0  0  0  0  0
    7.6401    6.7505   -3.0918 H   0  0  0  0  0  0  0  0  0  0  0  0
    7.6336    5.7381   -4.5531 H   0  0  0  0  0  0  0  0  0  0  0  0
    2.5598   -7.1437   -0.1474 H   0  0  0  0  0  0  0  0  0  0  0  0
   -0.4404   -6.3193   -1.6252 H   0  0  0  0  0  0  0  0  0  0  0  0
   -3.7117   -3.2384    6.5080 H   0  0  0  0  0  0  0  0  0  0  0  0
   -0.8442   -5.6440    5.9515 H   0  0  0  0  0  0  0  0  0  0  0  0
   -1.7138   -2.9265    4.2316 H   0  0  0  0  0  0  0  0  0  0  0  0
  1  2  1  0
  1 52  1  0
  2  3  1  0
  2 46  1  0
  3 47  1  0
  4  5  1  0
  4 53  1  0
 45  5  1  1
  6 45  1  0
  7 45  1  0
  8 45  1  0
  9 10  1  0
  9 47  1  0
  9 48  1  0
 10 11  1  0
 11 12  1  0
 12 13  1  0
 13 14  1  0
 14 15  1  0
 15 16  1  0
 16 17  1  0
 17 18  1  0
 18 19  1  0
 19 20  1  0
 20 21  1  0
 21 22  1  0
 22 23  1  0
 23 24  1  0
 24 25  1  0
 25 26  1  0
 27 28  1  0
 27 46  1  0
 27 49  1  0
 28 29  1  0
 29 30  1  0
 30 31  1  0
 31 32  1  0
 32 33  1  0
 33 34  1  0
 34 35  1  0
 35 36  1  0
 36 37  1  0
 37 38  1  0
 38 39  1  0
 39 40  1  0
 40 41  1  0
 41 42  1  0
 42 43  1  0
 43 44  1  0
 50 54  1  0
 51 54  1  0
 52 54  1  0
 53 54  1  0
  1 55  1  0
  1 56  1  0
  2 57  1  6
  3 58  1  0
  3 59  1  0
  4 60  1  0
  4 61  1  0
  5 62  1  0
  5 63  1  0
  6 64  1  0
  6 65  1  0
  6 66  1  0
  7 67  1  0
  7 68  1  0
  7 69  1  0
  8 70  1  0
  8 71  1  0
  8 72  1  0
  9 73  1  0
 10 74  1  0
 10 75  1  0
 11 76  1  0
 11 77  1  0
 12 78  1  0
 12 79  1  0
 13 80  1  0
 13 81  1  0
 14 82  1  0
 14 83  1  0
 15 84  1  0
 15 85  1  0
 16 86  1  0
 16 87  1  0
 17 88  1  0
 17 89  1  0
 18 90  1  0
 18 91  1  0
 19 92  1  0
 19 93  1  0
 20 94  1  0
 20 95  1  0
 21 96  1  0
 21 97  1  0
 22 98  1  0
 22 99  1  0
 23100  1  0
 23101  1  0
 24102  1  0
 24103  1  0
 25104  1  0
 25105  1  0
 26106  1  0
 26107  1  0
 26108  1  0
 27109  1  1
 28110  1  0
 28111  1  0
 29112  1  0
 29113  1  0
 30114  1  0
 30115  1  0
 31116  1  0
 31117  1  0
 32118  1  0
 32119  1  0
 33120  1  0
 33121  1  0
 34122  1  0
 34123  1  0
 35124  1  0
 35125  1  0
 36126  1  0
 36127  1  0
 37128  1  0
 37129  1  0
 38130  1  0
 38131  1  0
 39132  1  0
 39133  1  0
 40134  1  0
 40135  1  0
 41136  1  0
 41137  1  0
 42138  1  0
 42139  1  0
 43140  1  0
 43141  1  0
 44142  1  0
 44143  1  0
 44144  1  0
 48145  1  0
 49146  1  0
 50147  1  0
 51148  1  0
 54149  1  0
M  CHG  1  45   1
M  END
$$$$
PHOSPHATIDYLCHOLINE TRANSFER PROTEIN
     RDKit          3D

149148  0  0  0  0  0  0  0  0999 V2000
    0.1154    2.8810   -2.7203 C   0  0  0  0  0  0  0  0  0  0  0  0
   -0.6039    2.5597   -1.4247 C   0  0  1  0  0  0  0  0  0  0  0  0
   -1.4801    1.3509   -1.7055 C   0  0  0  0  0  0  0  0  0  0  0  0
    1.9190    1.2577   -6.9556 C   0  0  0  0  0  0  0  0  0  0  0  0
    1.5548    1.2040   -8.4301 C   0  0  0  0  0  0  0  0  0  0  0  0
    3.3558    0.2259   -9.6929 C   0  0  0  0  0  0  0  0  0  0  0  0
    1.1605   -0.2457  -10.2581 C   0  0  0  0  0  0  0  0  0  0  0  0
    2.0211   -1.1710   -8.3109 C   0  0  0  0  0  0  0  0  0  0  0  0
   -3.0967    0.4042   -2.9893 C   0  0  0  0  0  0  0  0  0  0  0  0
   -4.5468    0.6913   -3.1794 C   0  0  0  0  0  0  0  0  0  0  0  0
   -5.0630    1.4238   -1.9250 C   0  0  0  0  0  0  0  0  0  0  0  0
   -6.5151    1.7263   -2.0747 C   0  0  0  0  0  0  0  0  0  0  0  0
   -7.0546    2.4582   -0.8759 C   0  0  0  0  0  0  0  0  0  0  0  0
   -6.3334    3.7496   -0.7050 C   0  0  0  0  0  0  0  0  0  0  0  0
   -6.7852    4.6522    0.3722 C   0  0  0  0  0  0  0  0  0  0  0  0
   -6.7230    4.1835    1.7931 C   0  0  0  0  0  0  0  0  0  0  0  0
   -5.3489    3.8221    2.2572 C   0  0  0  0  0  0  0  0  0  0  0  0
   -5.2525    3.4598    3.6650 C   0  0  0  0  0  0  0  0  0  0  0  0
   -5.6844    2.3068    4.3995 C   0  0  0  0  0  0  0  0  0  0  0  0
   -7.0193    1.7083    4.4173 C   0  0  0  0  0  0  0  0  0  0  0  0
   -7.3573    0.9320    3.1980 C   0  0  0  0  0  0  0  0  0  0  0  0
   -8.7854    0.3978    3.2466 C   0  0  0  0  0  0  0  0  0  0  0  0
   -9.0488   -0.3762    1.9956 C   0  0  0  0  0  0  0  0  0  0  0  0
  -10.4511   -0.9549    1.9503 C   0  0  0  0  0  0  0  0  0  0  0  0
  -10.6645   -1.8842    3.1305 C   0  0  0  0  0  0  0  0  0  0  0  0
   -9.6847   -3.0312    3.1214 C   0  0  0  0  0  0  0  0  0  0  0  0
    0.2050    2.8919    0.7645 C   0  0  1  0  0  0  0  0  0  0  0  0
    1.4841    3.5577    1.1516 C   0  0  0  0  0  0  0  0  0  0  0  0
    2.6868    2.6697    1.3034 C   0  0  0  0  0  0  0  0  0  0  0  0
    3.0526    1.9398    0.0676 C   0  0  0  0  0  0  0  0  0  0  0  0
    4.2608    1.0706    0.1062 C   0  0  0  0  0  0  0  0  0  0  0  0
    4.2279   -0.0487    1.1217 C   0  0  0  0  0  0  0  0  0  0  0  0
    5.5051   -0.8201    0.9355 C   0  0  0  0  0  0  0  0  0  0  0  0
    5.7108   -1.9803    1.8752 C   0  0  0  0  0  0  0  0  0  0  0  0
    4.6176   -2.9532    1.7526 C   0  0  0  0  0  0  0  0  0  0  0  0
    4.6417   -4.2143    2.5077 C   0  0  0  0  0  0  0  0  0  0  0  0
    4.6889   -4.2856    3.9555 C   0  0  0  0  0  0  0  0  0  0  0  0
    5.7858   -3.7374    4.7552 C   0  0  0  0  0  0  0  0  0  0  0  0
    7.1622   -4.2724    4.4647 C   0  0  0  0  0  0  0  0  0  0  0  0
    7.2182   -5.7562    4.6841 C   0  0  0  0  0  0  0  0  0  0  0  0
    8.5878   -6.3642    4.4328 C   0  0  0  0  0  0  0  0  0  0  0  0
    8.4077   -7.8572    4.7100 C   0  0  0  0  0  0  0  0  0  0  0  0
    9.6515   -8.6535    4.5254 C   0  0  0  0  0  0  0  0  0  0  0  0
   10.1298   -8.5159    3.1021 C   0  0  0  0  0  0  0  0  0  0  0  0
    2.0265    0.0250   -9.1011 N   0  0  2  0  0  0  0  0  0  0  0  0
    0.2234    2.2318   -0.4097 O   0  0  0  0  0  0  0  0  0  0  0  0
   -2.3147    1.5429   -2.7934 O   0  0  0  0  0  0  0  0  0  0  0  0
   -2.5950   -0.3030   -4.1224 O   0  0  0  0  0  0  0  0  0  0  0  0
   -0.1344    1.9955    1.7785 O   0  0  0  0  0  0  0  0  0  0  0  0
    2.9676    2.7701   -5.1900 O   0  0  0  0  0  0  0  0  0  0  0  0
    0.9383    0.5666   -4.5373 O   0  0  0  0  0  0  0  0  0  0  0  0
    0.8727    1.7902   -3.1568 O   0  0  0  0  0  0  0  0  0  0  0  0
    1.4495    2.4119   -6.3366 O   0  0  0  0  0  0  0  0  0  0  0  0
    1.5050    2.1614   -4.6653 P   0  0  0  0  0  0  0  0  0  0  0  0
   -0.6211    3.0554   -3.5440 H   0  0  0  0  0  0  0  0  0  0  0  0
    0.8179    3.7262   -2.5872 H   0  0  0  0  0  0  0  0  0  0  0  0
   -1.2407    3.4199   -1.1048 H   0  0  0  0  0  0  0  0  0  0  0  0
   -0.7768    0.5162   -1.9477 H   0  0  0  0  0  0  0  0  0  0  0  0
   -2.0129    1.0501   -0.7765 H   0  0  0  0  0  0  0  0  0  0  0  0
    1.7537    0.3285   -6.4187 H   0  0  0  0  0  0  0  0  0  0  0  0
    3.0488    1.3848   -6.9611 H   0  0  0  0  0  0  0  0  0  0  0  0
    0.4421    1.2489   -8.5498 H   0  0  0  0  0  0  0  0  0  0  0  0
    1.9671    2.0873   -8.9685 H   0  0  0  0  0  0  0  0  0  0  0  0
    3.4195    1.1356  -10.3009 H   0  0  0  0  0  0  0  0  0  0  0  0
    4.1336    0.1888   -8.8768 H   0  0  0  0  0  0  0  0  0  0  0  0
    3.5774   -0.6403  -10.3514 H   0  0  0  0  0  0  0  0  0  0  0  0
    1.3606   -1.2993  -10.5812 H   0  0  0  0  0  0  0  0  0  0  0  0
    1.4475    0.4048  -11.1091 H   0  0  0  0  0  0  0  0  0  0  0  0
    0.0869   -0.1653  -10.0091 H   0  0  0  0  0  0  0  0  0  0  0  0
    1.1253   -1.1530   -7.6443 H   0  0  0  0  0  0  0  0  0  0  0  0
    1.8767   -2.0921   -8.9383 H   0  0  0  0  0  0  0  0  0  0  0  0
    2.9383   -1.3378   -7.7226 H   0  0  0  0  0  0  0  0  0  0  0  0
   -2.8936   -0.2902   -2.1555 H   0  0  0  0  0  0  0  0  0  0  0  0
   -4.7793    1.2636   -4.0864 H   0  0  0  0  0  0  0  0  0  0  0  0
   -5.1295   -0.2598   -3.2482 H   0  0  0  0  0  0  0  0  0  0  0  0
   -4.4830    2.3819   -1.9381 H   0  0  0  0  0  0  0  0  0  0  0  0
   -4.8275    0.7663   -1.0831 H   0  0  0  0  0  0  0  0  0  0  0  0
   -6.6836    2.4247   -2.9481 H   0  0  0  0  0  0  0  0  0  0  0  0
   -7.1210    0.8283   -2.3286 H   0  0  0  0  0  0  0  0  0  0  0  0
   -7.0341    1.8202    0.0138 H   0  0  0  0  0  0  0  0  0  0  0  0
   -8.1501    2.7024   -1.0529 H   0  0  0  0  0  0  0  0  0  0  0  0
   -5.2271    3.5994   -0.5482 H   0  0  0  0  0  0  0  0  0  0  0  0
   -6.4019    4.3000   -1.6790 H   0  0  0  0  0  0  0  0  0  0  0  0
   -6.0874    5.5558    0.3341 H   0  0  0  0  0  0  0  0  0  0  0  0
   -7.8301    5.0247    0.1638 H   0  0  0  0  0  0  0  0  0  0  0  0
   -7.4813    3.4907    2.0827 H   0  0  0  0  0  0  0  0  0  0  0  0
   -6.9605    5.1539    2.4042 H   0  0  0  0  0  0  0  0  0  0  0  0
   -4.6345    4.6789    2.0465 H   0  0  0  0  0  0  0  0  0  0  0  0
   -4.9703    2.9765    1.5875 H   0  0  0  0  0  0  0  0  0  0  0  0
   -5.6415    4.4212    4.2570 H   0  0  0  0  0  0  0  0  0  0  0  0
   -4.1210    3.6162    3.9668 H   0  0  0  0  0  0  0  0  0  0  0  0
   -5.4427    2.4618    5.5443 H   0  0  0  0  0  0  0  0  0  0  0  0
   -4.8874    1.4834    4.2039 H   0  0  0  0  0  0  0  0  0  0  0  0
   -7.1899    1.0439    5.3181 H   0  0  0  0  0  0  0  0  0  0  0  0
   -7.8075    2.5219    4.5834 H   0  0  0  0  0  0  0  0  0  0  0  0
   -7.1380    1.3983    2.2653 H   0  0  0  0  0  0  0  0  0  0  0  0
   -6.7276   -0.0339    3.2646 H   0  0  0  0  0  0  0  0  0  0  0  0
   -9.5113    1.2319    3.3697 H   0  0  0  0  0  0  0  0  0  0  0  0
   -8.9236   -0.2845    4.1073 H   0  0  0  0  0  0  0  0  0  0  0  0
   -8.3385   -1.1942    1.8238 H   0  0  0  0  0  0  0  0  0  0  0  0
   -8.9856    0.3538    1.1372 H   0  0  0  0  0  0  0  0  0  0  0  0
  -10.5246   -1.5786    1.0316 H   0  0  0  0  0  0  0  0  0  0  0  0
  -11.2427   -0.1928    1.8917 H   0  0  0  0  0  0  0  0  0  0  0  0
  -10.6720   -1.3341    4.0693 H   0  0  0  0  0  0  0  0  0  0  0  0
  -11.6772   -2.3388    2.9974 H   0  0  0  0  0  0  0  0  0  0  0  0
   -9.4600   -3.3686    2.0896 H   0  0  0  0  0  0  0  0  0  0  0  0
  -10.1146   -3.8545    3.7464 H   0  0  0  0  0  0  0  0  0  0  0  0
   -8.7777   -2.6906    3.6632 H   0  0  0  0  0  0  0  0  0  0  0  0
   -0.6129    3.6764    0.7106 H   0  0  0  0  0  0  0  0  0  0  0  0
    1.2658    4.1153    2.1105 H   0  0  0  0  0  0  0  0  0  0  0  0
    1.7414    4.3707    0.4378 H   0  0  0  0  0  0  0  0  0  0  0  0
    3.5529    3.3605    1.5437 H   0  0  0  0  0  0  0  0  0  0  0  0
    2.6303    2.0203    2.2058 H   0  0  0  0  0  0  0  0  0  0  0  0
    3.1687    2.6063   -0.8112 H   0  0  0  0  0  0  0  0  0  0  0  0
    2.1781    1.2747   -0.2306 H   0  0  0  0  0  0  0  0  0  0  0  0
    5.1915    1.6400    0.3083 H   0  0  0  0  0  0  0  0  0  0  0  0
    4.3780    0.6289   -0.9051 H   0  0  0  0  0  0  0  0  0  0  0  0
    4.1146    0.3954    2.1230 H   0  0  0  0  0  0  0  0  0  0  0  0
    3.3810   -0.7353    0.9435 H   0  0  0  0  0  0  0  0  0  0  0  0
    5.5140   -1.1488   -0.1325 H   0  0  0  0  0  0  0  0  0  0  0  0
    6.3335   -0.0787    0.9949 H   0  0  0  0  0  0  0  0  0  0  0  0
    6.6890   -2.4414    1.5350 H   0  0  0  0  0  0  0  0  0  0  0  0
    5.8442   -1.5139    2.8758 H   0  0  0  0  0  0  0  0  0  0  0  0
    4.4942   -3.1802    0.6509 H   0  0  0  0  0  0  0  0  0  0  0  0
    3.6537   -2.3734    1.9603 H   0  0  0  0  0  0  0  0  0  0  0  0
    3.6544   -4.7370    2.2179 H   0  0  0  0  0  0  0  0  0  0  0  0
    5.3662   -4.9597    2.0229 H   0  0  0  0  0  0  0  0  0  0  0  0
    3.6839   -3.9158    4.3477 H   0  0  0  0  0  0  0  0  0  0  0  0
    4.6123   -5.3937    4.2271 H   0  0  0  0  0  0  0  0  0  0  0  0
    5.7275   -2.6453    4.8351 H   0  0  0  0  0  0  0  0  0  0  0  0
    5.6290   -4.0490    5.8538 H   0  0  0  0  0  0  0  0  0  0  0  0
    7.5717   -3.9599    3.5000 H   0  0  0  0  0  0  0  0  0  0  0  0
    7.8395   -3.7994    5.2339 H   0  0  0  0  0  0  0  0  0  0  0  0
    6.9543   -6.0513    5.7180 H   0  0  0  0  0  0  0  0  0  0  0  0
    6.4481   -6.2457    4.0232 H   0  0  0  0  0  0  0  0  0  0  0  0
    9.0036   -6.1496    3.4466 H   0  0  0  0  0  0  0  0  0  0  0  0
    9.3250   -6.0025    5.1780 H   0  0  0  0  0  0  0  0  0  0  0  0
    8.1595   -7.8963    5.8112 H   0  0  0  0  0  0  0  0  0  0  0  0
    7.5172   -8.2713    4.1984 H   0  0  0  0  0  0  0  0  0  0  0  0
   10.4288   -8.2109    5.1851 H   0  0  0  0  0  0  0  0  0  0  0  0
    9.5365   -9.7082    4.8466 H   0  0  0  0  0  0  0  0  0  0  0  0
   10.7775   -7.6078    3.0452 H   0  0  0  0  0  0  0  0  0  0  0  0
   10.7064   -9.4281    2.8152 H   0  0  0  0  0  0  0  0  0  0  0  0
    9.2328   -8.3451    2.4794 H   0  0  0  0  0  0  0  0  0  0  0  0
   -1.6402   -0.5221   -3.9858 H   0  0  0  0  0  0  0  0  0  0  0  0
    0.6504    1.4911    2.0958 H   0  0  0  0  0  0  0  0  0  0  0  0
    3.6595    2.8461   -4.4833 H   0  0  0  0  0  0  0  0  0  0  0  0
    0.1764    0.5140   -5.2027 H   0  0  0  0  0  0  0  0  0  0  0  0
    0.6001    2.9664   -5.4193 H   0  0  0  0  0  0  0  0  0  0  0  0
  1  2  1  0
  1 52  1  0
  2  3  1  0
  2 46  1  0
  3 47  1  0
  4  5  1  0
  4 53  1  0
 45  5  1  1
  6 45  1  0
  7 45  1  0
  8 45  1  0
  9 10  1  0
  9 47  1  0
  9 48  1  0
 10 11  1  0
 11 12  1  0
 12 13  1  0
 13 14  1  0
 14 15  1  0
 15 16  1  0
 16 17  1  0
 17 18  1  0
 18 19  1  0
 19 20  1  0
 20 21  1  0
 21 22  1  0
 22 23  1  0
 23 24  1  0
 24 25  1  0
 25 26  1  0
 27 28  1  0
 27 46  1  0
 27 49  1  0
 28 29  1  0
 29 30  1  0
 30 31  1  0
 31 32  1  0
 32 33  1  0
 33 34  1  0
 34 35  1  0
 35 36  1  0
 36 37  1  0
 37 38  1  0
 38 39  1  0
 39 40  1  0
 40 41  1  0
 41 42  1  0
 42 43  1  0
 43 44  1  0
 50 54  1  0
 51 54  1  0
 52 54  1  0
 53 54  1  0
  1 55  1  0
  1 56  1  0
  2 57  1  1
  3 58  1  0
  3 59  1  0
  4 60  1  0
  4 61  1  0
  5 62  1  0
  5 63  1  0
  6 64  1  0
  6 65  1  0
  6 66  1  0
  7 67  1  0
  7 68  1  0
  7 69  1  0
  8 70  1  0
  8 71  1  0
  8 72  1  0
  9 73  1  0
 10 74  1  0
 10 75  1  0
 11 76  1  0
 11 77  1  0
 12 78  1  0
 12 79  1  0
 13 80  1  0
 13 81  1  0
 14 82  1  0
 14 83  1  0
 15 84  1  0
 15 85  1  0
 16 86  1  0
 16 87  1  0
 17 88  1  0
 17 89  1  0
 18 90  1  0
 18 91  1  0
 19 92  1  0
 19 93  1  0
 20 94  1  0
 20 95  1  0
 21 96  1  0
 21 97  1  0
 22 98  1  0
 22 99  1  0
 23100  1  0
 23101  1  0
 24102  1  0
 24103  1  0
 25104  1  0
 25105  1  0
 26106  1  0
 26107  1  0
 26108  1  0
 27109  1  6
 28110  1  0
 28111  1  0
 29112  1  0
 29113  1  0
 30114  1  0
 30115  1  0
 31116  1  0
 31117  1  0
 32118  1  0
 32119  1  0
 33120  1  0
 33121  1  0
 34122  1  0
 34123  1  0
 35124  1  0
 35125  1  0
 36126  1  0
 36127  1  0
 37128  1  0
 37129  1  0
 38130  1  0
 38131  1  0
 39132  1  0
 39133  1  0
 40134  1  0
 40135  1  0
 41136  1  0
 41137  1  0
 42138  1  0
 42139  1  0
 43140  1  0
 43141  1  0
 44142  1  0
 44143  1  0
 44144  1  0
 48145  1  0
 49146  1  0
 50147  1  0
 51148  1  0
 54149  1  0
M  CHG  1  45   1
M  END
$$$$
PHOSPHATIDYLCHOLINE TRANSFER PROTEIN
     RDKit          3D

149148  0  0  0  0  0  0  0  0999 V2000
   -4.4749   -1.1899   -2.6338 C   0  0  0  0  0  0  0  0  0  0  0  0
   -5.2332   -1.1344   -1.3556 C   0  0  1  0  0  0  0  0  0  0  0  0
   -6.3086   -0.0486   -1.5751 C   0  0  0  0  0  0  0  0  0  0  0  0
   -0.5511   -3.1199   -3.4448 C   0  0  0  0  0  0  0  0  0  0  0  0
    0.2781   -3.9128   -2.4954 C   0  0  0  0  0  0  0  0  0  0  0  0
    1.8948   -4.5031   -4.0681 C   0  0  0  0  0  0  0  0  0  0  0  0
    2.4244   -4.7457   -1.8275 C   0  0  0  0  0  0  0  0  0  0  0  0
    2.2537   -2.5784   -2.8018 C   0  0  0  0  0  0  0  0  0  0  0  0
   -6.3813    2.2513   -1.7656 C   0  0  0  0  0  0  0  0  0  0  0  0
   -5.7412    3.3857   -2.4987 C   0  0  0  0  0  0  0  0  0  0  0  0
   -5.2945    3.0055   -3.8697 C   0  0  0  0  0  0  0  0  0  0  0  0
   -4.6012    4.1856   -4.5623 C   0  0  0  0  0  0  0  0  0  0  0  0
   -3.3866    4.6024   -3.7394 C   0  0  0  0  0  0  0  0  0  0  0  0
   -2.3989    3.4979   -3.6206 C   0  0  0  0  0  0  0  0  0  0  0  0
   -1.2392    3.9486   -2.7256 C   0  0  0  0  0  0  0  0  0  0  0  0
   -0.2825    2.7915   -2.6649 C   0  0  0  0  0  0  0  0  0  0  0  0
    0.9026    2.9731   -1.7869 C   0  0  0  0  0  0  0  0  0  0  0  0
    0.5112    3.2160   -0.3414 C   0  0  0  0  0  0  0  0  0  0  0  0
    1.7035    3.3149    0.5577 C   0  0  0  0  0  0  0  0  0  0  0  0
    2.6354    4.4117    0.2022 C   0  0  0  0  0  0  0  0  0  0  0  0
    2.0075    5.7731    0.2828 C   0  0  0  0  0  0  0  0  0  0  0  0
    3.0921    6.7793   -0.0724 C   0  0  0  0  0  0  0  0  0  0  0  0
    2.5662    8.1876    0.0297 C   0  0  0  0  0  0  0  0  0  0  0  0
    3.6212    9.2174   -0.3040 C   0  0  0  0  0  0  0  0  0  0  0  0
    3.0631   10.6212   -0.1604 C   0  0  0  0  0  0  0  0  0  0  0  0
    2.5853   10.8482    1.2664 C   0  0  0  0  0  0  0  0  0  0  0  0
   -5.5245   -2.8597    0.0939 C   0  0  1  0  0  0  0  0  0  0  0  0
   -4.6379   -4.1087   -0.0446 C   0  0  0  0  0  0  0  0  0  0  0  0
   -4.2827   -4.5733    1.3712 C   0  0  0  0  0  0  0  0  0  0  0  0
   -3.4481   -5.8017    1.4155 C   0  0  0  0  0  0  0  0  0  0  0  0
   -3.1268   -6.2088    2.8473 C   0  0  0  0  0  0  0  0  0  0  0  0
   -2.2902   -5.1703    3.5687 C   0  0  0  0  0  0  0  0  0  0  0  0
   -2.0720   -5.5570    5.0116 C   0  0  0  0  0  0  0  0  0  0  0  0
   -1.1986   -4.5344    5.6890 C   0  0  0  0  0  0  0  0  0  0  0  0
    0.2054   -4.4845    5.1319 C   0  0  0  0  0  0  0  0  0  0  0  0
    0.9741   -3.4388    5.9317 C   0  0  0  0  0  0  0  0  0  0  0  0
    2.4114   -3.3602    5.5646 C   0  0  0  0  0  0  0  0  0  0  0  0
    2.7439   -2.9799    4.1523 C   0  0  0  0  0  0  0  0  0  0  0  0
    4.2587   -3.0575    4.0585 C   0  0  0  0  0  0  0  0  0  0  0  0
    4.8480   -2.6936    2.7594 C   0  0  0  0  0  0  0  0  0  0  0  0
    4.6042   -1.2637    2.3370 C   0  0  0  0  0  0  0  0  0  0  0  0
    5.2707   -0.9813    0.9966 C   0  0  0  0  0  0  0  0  0  0  0  0
    5.0759    0.4579    0.5724 C   0  0  0  0  0  0  0  0  0  0  0  0
    5.6730    1.4228    1.5817 C   0  0  0  0  0  0  0  0  0  0  0  0
    1.6932   -3.8985   -2.7446 N   0  0  2  0  0  0  0  0  0  0  0  0
   -5.8265   -2.4062   -1.1956 O   0  0  0  0  0  0  0  0  0  0  0  0
   -5.5962    1.1436   -1.5762 O   0  0  0  0  0  0  0  0  0  0  0  0
   -6.5320    2.7507   -0.3874 O   0  0  0  0  0  0  0  0  0  0  0  0
   -6.6948   -3.3011    0.6883 O   0  0  0  0  0  0  0  0  0  0  0  0
   -2.6545   -3.9670   -4.6303 O   0  0  0  0  0  0  0  0  0  0  0  0
   -4.2887   -3.2821   -4.1246 O   0  0  0  0  0  0  0  0  0  0  0  0
   -3.4910   -2.1714   -2.6984 O   0  0  0  0  0  0  0  0  0  0  0  0
   -1.9155   -3.1798   -3.1502 O   0  0  0  0  0  0  0  0  0  0  0  0
   -2.8554   -2.3434   -4.2420 P   0  0  0  0  0  0  0  0  0  0  0  0
   -5.1414   -1.2725   -3.5101 H   0  0  0  0  0  0  0  0  0  0  0  0
   -3.9199   -0.2188   -2.8048 H   0  0  0  0  0  0  0  0  0  0  0  0
   -4.6685   -0.8123   -0.4921 H   0  0  0  0  0  0  0  0  0  0  0  0
   -6.7738   -0.2725   -2.5641 H   0  0  0  0  0  0  0  0  0  0  0  0
   -7.1111   -0.1066   -0.8442 H   0  0  0  0  0  0  0  0  0  0  0  0
   -0.2602   -2.0556   -3.3970 H   0  0  0  0  0  0  0  0  0  0  0  0
   -0.3449   -3.4664   -4.4815 H   0  0  0  0  0  0  0  0  0  0  0  0
   -0.0148   -5.0045   -2.5982 H   0  0  0  0  0  0  0  0  0  0  0  0
    0.1202   -3.5826   -1.4408 H   0  0  0  0  0  0  0  0  0  0  0  0
    1.9028   -3.6968   -4.8208 H   0  0  0  0  0  0  0  0  0  0  0  0
    2.8561   -5.0478   -4.1436 H   0  0  0  0  0  0  0  0  0  0  0  0
    1.0341   -5.1551   -4.3260 H   0  0  0  0  0  0  0  0  0  0  0  0
    2.4549   -4.3358   -0.8055 H   0  0  0  0  0  0  0  0  0  0  0  0
    2.0392   -5.7818   -1.9033 H   0  0  0  0  0  0  0  0  0  0  0  0
    3.4787   -4.7589   -2.1764 H   0  0  0  0  0  0  0  0  0  0  0  0
    1.7443   -2.0395   -3.6557 H   0  0  0  0  0  0  0  0  0  0  0  0
    2.1956   -1.9966   -1.8785 H   0  0  0  0  0  0  0  0  0  0  0  0
    3.3143   -2.6814   -3.1689 H   0  0  0  0  0  0  0  0  0  0  0  0
   -7.4154    2.0465   -2.0194 H   0  0  0  0  0  0  0  0  0  0  0  0
   -6.4826    4.2171   -2.5024 H   0  0  0  0  0  0  0  0  0  0  0  0
   -4.8243    3.6644   -1.9083 H   0  0  0  0  0  0  0  0  0  0  0  0
   -4.6920    2.0986   -3.8641 H   0  0  0  0  0  0  0  0  0  0  0  0
   -6.2113    2.7997   -4.4903 H   0  0  0  0  0  0  0  0  0  0  0  0
   -5.2576    5.0391   -4.7245 H   0  0  0  0  0  0  0  0  0  0  0  0
   -4.2309    3.8151   -5.5273 H   0  0  0  0  0  0  0  0  0  0  0  0
   -2.9216    5.4325   -4.3471 H   0  0  0  0  0  0  0  0  0  0  0  0
   -3.6252    5.0343   -2.7747 H   0  0  0  0  0  0  0  0  0  0  0  0
   -2.7779    2.5216   -3.3158 H   0  0  0  0  0  0  0  0  0  0  0  0
   -1.9206    3.3187   -4.6304 H   0  0  0  0  0  0  0  0  0  0  0  0
   -1.5875    4.1833   -1.7037 H   0  0  0  0  0  0  0  0  0  0  0  0
   -0.7504    4.8502   -3.1250 H   0  0  0  0  0  0  0  0  0  0  0  0
    0.1036    2.6575   -3.7065 H   0  0  0  0  0  0  0  0  0  0  0  0
   -0.8130    1.8462   -2.4220 H   0  0  0  0  0  0  0  0  0  0  0  0
    1.5041    2.0423   -1.8277 H   0  0  0  0  0  0  0  0  0  0  0  0
    1.5126    3.8477   -2.0912 H   0  0  0  0  0  0  0  0  0  0  0  0
   -0.0992    4.1338   -0.3110 H   0  0  0  0  0  0  0  0  0  0  0  0
   -0.1680    2.4016   -0.0046 H   0  0  0  0  0  0  0  0  0  0  0  0
    1.3229    3.4881    1.5903 H   0  0  0  0  0  0  0  0  0  0  0  0
    2.2955    2.3604    0.5392 H   0  0  0  0  0  0  0  0  0  0  0  0
    3.0630    4.2170   -0.8213 H   0  0  0  0  0  0  0  0  0  0  0  0
    3.5003    4.3974    0.9088 H   0  0  0  0  0  0  0  0  0  0  0  0
    1.2033    5.8411   -0.4565 H   0  0  0  0  0  0  0  0  0  0  0  0
    1.6604    5.9679    1.3229 H   0  0  0  0  0  0  0  0  0  0  0  0
    3.5378    6.5163   -1.0399 H   0  0  0  0  0  0  0  0  0  0  0  0
    3.8924    6.6589    0.6999 H   0  0  0  0  0  0  0  0  0  0  0  0
    1.6578    8.3058   -0.5676 H   0  0  0  0  0  0  0  0  0  0  0  0
    2.3147    8.3344    1.1083 H   0  0  0  0  0  0  0  0  0  0  0  0
    3.9072    9.0836   -1.3650 H   0  0  0  0  0  0  0  0  0  0  0  0
    4.4872    9.1335    0.3770 H   0  0  0  0  0  0  0  0  0  0  0  0
    3.8942   11.3290   -0.3505 H   0  0  0  0  0  0  0  0  0  0  0  0
    2.2396   10.8413   -0.8421 H   0  0  0  0  0  0  0  0  0  0  0  0
    2.4635   11.9424    1.3925 H   0  0  0  0  0  0  0  0  0  0  0  0
    3.2697   10.4119    2.0186 H   0  0  0  0  0  0  0  0  0  0  0  0
    1.5794   10.3842    1.4032 H   0  0  0  0  0  0  0  0  0  0  0  0
   -4.9279   -2.1636    0.6903 H   0  0  0  0  0  0  0  0  0  0  0  0
   -3.6947   -3.8905   -0.5552 H   0  0  0  0  0  0  0  0  0  0  0  0
   -5.1556   -4.9444   -0.5238 H   0  0  0  0  0  0  0  0  0  0  0  0
   -3.7420   -3.7418    1.9047 H   0  0  0  0  0  0  0  0  0  0  0  0
   -5.2449   -4.6665    1.9103 H   0  0  0  0  0  0  0  0  0  0  0  0
   -3.9350   -6.6502    0.9152 H   0  0  0  0  0  0  0  0  0  0  0  0
   -2.4752   -5.6528    0.8920 H   0  0  0  0  0  0  0  0  0  0  0  0
   -2.5193   -7.1382    2.8622 H   0  0  0  0  0  0  0  0  0  0  0  0
   -4.0304   -6.4032    3.4472 H   0  0  0  0  0  0  0  0  0  0  0  0
   -2.9236   -4.2378    3.6224 H   0  0  0  0  0  0  0  0  0  0  0  0
   -1.3406   -4.9815    3.0289 H   0  0  0  0  0  0  0  0  0  0  0  0
   -3.0818   -5.5114    5.5036 H   0  0  0  0  0  0  0  0  0  0  0  0
   -1.6596   -6.5790    5.1465 H   0  0  0  0  0  0  0  0  0  0  0  0
   -1.6626   -3.5146    5.6369 H   0  0  0  0  0  0  0  0  0  0  0  0
   -1.1106   -4.7332    6.7831 H   0  0  0  0  0  0  0  0  0  0  0  0
    0.6817   -5.4838    5.3066 H   0  0  0  0  0  0  0  0  0  0  0  0
    0.1604   -4.2125    4.0746 H   0  0  0  0  0  0  0  0  0  0  0  0
    0.4978   -2.4389    5.7246 H   0  0  0  0  0  0  0  0  0  0  0  0
    0.8252   -3.6650    7.0027 H   0  0  0  0  0  0  0  0  0  0  0  0
    2.9134   -2.6007    6.2096 H   0  0  0  0  0  0  0  0  0  0  0  0
    2.9424   -4.3227    5.8108 H   0  0  0  0  0  0  0  0  0  0  0  0
    2.4942   -1.8895    4.0277 H   0  0  0  0  0  0  0  0  0  0  0  0
    2.2186   -3.5662    3.4036 H   0  0  0  0  0  0  0  0  0  0  0  0
    4.6734   -2.4163    4.8733 H   0  0  0  0  0  0  0  0  0  0  0  0
    4.5940   -4.1095    4.3075 H   0  0  0  0  0  0  0  0  0  0  0  0
    5.9382   -2.8303    2.8025 H   0  0  0  0  0  0  0  0  0  0  0  0
    4.4402   -3.4108    1.9946 H   0  0  0  0  0  0  0  0  0  0  0  0
    3.5154   -1.1461    2.1626 H   0  0  0  0  0  0  0  0  0  0  0  0
    4.9546   -0.5476    3.0932 H   0  0  0  0  0  0  0  0  0  0  0  0
    4.7180   -1.5820    0.2100 H   0  0  0  0  0  0  0  0  0  0  0  0
    6.3278   -1.2415    0.9621 H   0  0  0  0  0  0  0  0  0  0  0  0
    4.0320    0.7096    0.3746 H   0  0  0  0  0  0  0  0  0  0  0  0
    5.6553    0.6090   -0.3683 H   0  0  0  0  0  0  0  0  0  0  0  0
    6.7036    1.1226    1.8537 H   0  0  0  0  0  0  0  0  0  0  0  0
    5.0203    1.5700    2.4520 H   0  0  0  0  0  0  0  0  0  0  0  0
    5.7855    2.4103    1.0490 H   0  0  0  0  0  0  0  0  0  0  0  0
   -5.6086    2.8295   -0.0239 H   0  0  0  0  0  0  0  0  0  0  0  0
   -7.1413   -3.8766   -0.0078 H   0  0  0  0  0  0  0  0  0  0  0  0
   -2.2958   -3.9833   -5.5460 H   0  0  0  0  0  0  0  0  0  0  0  0
   -4.9611   -2.8850   -4.7435 H   0  0  0  0  0  0  0  0  0  0  0  0
   -3.0915   -3.2647   -3.2032 H   0  0  0  0  0  0  0  0  0  0  0  0
  1  2  1  0
  1 52  1  0
  2  3  1  0
  2 46  1  0
  3 47  1  0
  4  5  1  0
  4 53  1  0
 45  5  1  1
  6 45  1  0
  7 45  1  0
  8 45  1  0
  9 10  1  0
  9 47  1  0
  9 48  1  0
 10 11  1  0
 11 12  1  0
 12 13  1  0
 13 14  1  0
 14 15  1  0
 15 16  1  0
 16 17  1  0
 17 18  1  0
 18 19  1  0
 19 20  1  0
 20 21  1  0
 21 22  1  0
 22 23  1  0
 23 24  1  0
 24 25  1  0
 25 26  1  0
 27 28  1  0
 27 46  1  0
 27 49  1  0
 28 29  1  0
 29 30  1  0
 30 31  1  0
 31 32  1  0
 32 33  1  0
 33 34  1  0
 34 35  1  0
 35 36  1  0
 36 37  1  0
 37 38  1  0
 38 39  1  0
 39 40  1  0
 40 41  1  0
 41 42  1  0
 42 43  1  0
 43 44  1  0
 50 54  1  0
 51 54  1  0
 52 54  1  0
 53 54  1  0
  1 55  1  0
  1 56  1  0
  2 57  1  1
  3 58  1  0
  3 59  1  0
  4 60  1  0
  4 61  1  0
  5 62  1  0
  5 63  1  0
  6 64  1  0
  6 65  1  0
  6 66  1  0
  7 67  1  0
  7 68  1  0
  7 69  1  0
  8 70  1  0
  8 71  1  0
  8 72  1  0
  9 73  1  0
 10 74  1  0
 10 75  1  0
 11 76  1  0
 11 77  1  0
 12 78  1  0
 12 79  1  0
 13 80  1  0
 13 81  1  0
 14 82  1  0
 14 83  1  0
 15 84  1  0
 15 85  1  0
 16 86  1  0
 16 87  1  0
 17 88  1  0
 17 89  1  0
 18 90  1  0
 18 91  1  0
 19 92  1  0
 19 93  1  0
 20 94  1  0
 20 95  1  0
 21 96  1  0
 21 97  1  0
 22 98  1  0
 22 99  1  0
 23100  1  0
 23101  1  0
 24102  1  0
 24103  1  0
 25104  1  0
 25105  1  0
 26106  1  0
 26107  1  0
 26108  1  0
 27109  1  1
 28110  1  0
 28111  1  0
 29112  1  0
 29113  1  0
 30114  1  0
 30115  1  0
 31116  1  0
 31117  1  0
 32118  1  0
 32119  1  0
 33120  1  0
 33121  1  0
 34122  1  0
 34123  1  0
 35124  1  0
 35125  1  0
 36126  1  0
 36127  1  0
 37128  1  0
 37129  1  0
 38130  1  0
 38131  1  0
 39132  1  0
 39133  1  0
 40134  1  0
 40135  1  0
 41136  1  0
 41137  1  0
 42138  1  0
 42139  1  0
 43140  1  0
 43141  1  0
 44142  1  0
 44143  1  0
 44144  1  0
 48145  1  0
 49146  1  0
 50147  1  0
 51148  1  0
 54149  1  0
M  CHG  1  45   1
M  END
$$$$
PHOSPHATIDYLCHOLINE TRANSFER PROTEIN
     RDKit          3D

149148  0  0  0  0  0  0  0  0999 V2000
   -1.1080   -0.5181    1.0019 C   0  0  0  0  0  0  0  0  0  0  0  0
   -0.6743   -0.6822    2.4402 C   0  0  1  0  0  0  0  0  0  0  0  0
    0.2831   -1.7616    2.6008 C   0  0  0  0  0  0  0  0  0  0  0  0
   -1.6156    2.9601   -2.0148 C   0  0  0  0  0  0  0  0  0  0  0  0
   -2.6971    3.9462   -2.3048 C   0  0  0  0  0  0  0  0  0  0  0  0
   -4.3682    2.7288   -3.4963 C   0  0  0  0  0  0  0  0  0  0  0  0
   -2.4894    3.5022   -4.6766 C   0  0  0  0  0  0  0  0  0  0  0  0
   -4.0747    5.0229   -3.8672 C   0  0  0  0  0  0  0  0  0  0  0  0
    1.0253   -3.8188    2.3961 C   0  0  0  0  0  0  0  0  0  0  0  0
    1.4942   -4.7578    1.3419 C   0  0  0  0  0  0  0  0  0  0  0  0
    1.9065   -4.1688    0.0524 C   0  0  0  0  0  0  0  0  0  0  0  0
    0.9483   -3.4045   -0.7618 C   0  0  0  0  0  0  0  0  0  0  0  0
   -0.2280   -3.9970   -1.3691 C   0  0  0  0  0  0  0  0  0  0  0  0
   -1.3012   -4.6426   -0.5307 C   0  0  0  0  0  0  0  0  0  0  0  0
   -2.3925   -5.1456   -1.4618 C   0  0  0  0  0  0  0  0  0  0  0  0
   -3.4934   -5.8692   -0.8108 C   0  0  0  0  0  0  0  0  0  0  0  0
   -4.3913   -5.2611    0.1687 C   0  0  0  0  0  0  0  0  0  0  0  0
   -3.9116   -4.7393    1.4595 C   0  0  0  0  0  0  0  0  0  0  0  0
   -3.2104   -5.7503    2.3191 C   0  0  0  0  0  0  0  0  0  0  0  0
   -2.7507   -5.1022    3.5882 C   0  0  0  0  0  0  0  0  0  0  0  0
   -3.8995   -4.5352    4.4417 C   0  0  0  0  0  0  0  0  0  0  0  0
   -3.3029   -3.9096    5.6585 C   0  0  0  0  0  0  0  0  0  0  0  0
   -4.1246   -3.3610    6.7280 C   0  0  0  0  0  0  0  0  0  0  0  0
   -5.0983   -2.2771    6.5617 C   0  0  0  0  0  0  0  0  0  0  0  0
   -6.2701   -2.5499    5.6935 C   0  0  0  0  0  0  0  0  0  0  0  0
   -7.2151   -1.3186    5.6807 C   0  0  0  0  0  0  0  0  0  0  0  0
   -1.2220    1.1559    3.7312 C   0  0  1  0  0  0  0  0  0  0  0  0
   -1.3893    2.5273    3.0966 C   0  0  0  0  0  0  0  0  0  0  0  0
   -0.2083    3.4214    3.1972 C   0  0  0  0  0  0  0  0  0  0  0  0
    1.0529    2.7861    2.7082 C   0  0  0  0  0  0  0  0  0  0  0  0
    2.1910    3.8121    2.8381 C   0  0  0  0  0  0  0  0  0  0  0  0
    2.0764    4.9732    1.9270 C   0  0  0  0  0  0  0  0  0  0  0  0
    2.2741    4.5919    0.4617 C   0  0  0  0  0  0  0  0  0  0  0  0
    3.6471    4.0777    0.2319 C   0  0  0  0  0  0  0  0  0  0  0  0
    3.9172    3.6490   -1.1874 C   0  0  0  0  0  0  0  0  0  0  0  0
    5.3580    3.1945   -1.3281 C   0  0  0  0  0  0  0  0  0  0  0  0
    5.6427    2.7073   -2.7094 C   0  0  0  0  0  0  0  0  0  0  0  0
    4.8584    1.5103   -3.1078 C   0  0  0  0  0  0  0  0  0  0  0  0
    5.1696    0.9897   -4.4958 C   0  0  0  0  0  0  0  0  0  0  0  0
    6.6139    0.6336   -4.6610 C   0  0  0  0  0  0  0  0  0  0  0  0
    7.1588   -0.3782   -3.7315 C   0  0  0  0  0  0  0  0  0  0  0  0
    6.5142   -1.7272   -3.7432 C   0  0  0  0  0  0  0  0  0  0  0  0
    7.2607   -2.5463   -2.6826 C   0  0  0  0  0  0  0  0  0  0  0  0
    6.7259   -3.9456   -2.5538 C   0  0  0  0  0  0  0  0  0  0  0  0
   -3.3594    3.8002   -3.5569 N   0  0  2  0  0  0  0  0  0  0  0  0
   -0.2586    0.4808    3.0200 O   0  0  0  0  0  0  0  0  0  0  0  0
   -0.0696   -3.0216    2.0838 O   0  0  0  0  0  0  0  0  0  0  0  0
    0.5793   -4.6625    3.4682 O   0  0  0  0  0  0  0  0  0  0  0  0
   -0.9711    1.3889    5.0545 O   0  0  0  0  0  0  0  0  0  0  0  0
   -2.6039    0.0900   -1.3858 O   0  0  0  0  0  0  0  0  0  0  0  0
   -1.2463    0.2367   -2.7986 O   0  0  0  0  0  0  0  0  0  0  0  0
   -0.1853   -0.0002    0.1399 O   0  0  0  0  0  0  0  0  0  0  0  0
   -2.0719    1.6405   -2.0105 O   0  0  0  0  0  0  0  0  0  0  0  0
   -0.9885    0.6241   -1.2034 P   0  0  0  0  0  0  0  0  0  0  0  0
   -2.0983    0.0330    0.9501 H   0  0  0  0  0  0  0  0  0  0  0  0
   -1.3842   -1.5315    0.6511 H   0  0  0  0  0  0  0  0  0  0  0  0
   -1.6649   -0.9215    2.9358 H   0  0  0  0  0  0  0  0  0  0  0  0
    0.4957   -1.9939    3.6951 H   0  0  0  0  0  0  0  0  0  0  0  0
    1.2872   -1.4986    2.1762 H   0  0  0  0  0  0  0  0  0  0  0  0
   -0.7301    2.9836   -2.6520 H   0  0  0  0  0  0  0  0  0  0  0  0
   -1.2500    3.1802   -0.9654 H   0  0  0  0  0  0  0  0  0  0  0  0
   -2.3815    4.9890   -2.0728 H   0  0  0  0  0  0  0  0  0  0  0  0
   -3.4948    3.7432   -1.5224 H   0  0  0  0  0  0  0  0  0  0  0  0
   -5.2720    3.0369   -4.0168 H   0  0  0  0  0  0  0  0  0  0  0  0
   -4.5313    2.5215   -2.4068 H   0  0  0  0  0  0  0  0  0  0  0  0
   -3.9032    1.8065   -3.9026 H   0  0  0  0  0  0  0  0  0  0  0  0
   -3.1672    3.5297   -5.5858 H   0  0  0  0  0  0  0  0  0  0  0  0
   -2.0973    2.4874   -4.6492 H   0  0  0  0  0  0  0  0  0  0  0  0
   -1.7608    4.3027   -4.8473 H   0  0  0  0  0  0  0  0  0  0  0  0
   -4.2499    5.5503   -2.8931 H   0  0  0  0  0  0  0  0  0  0  0  0
   -3.4613    5.6888   -4.4832 H   0  0  0  0  0  0  0  0  0  0  0  0
   -5.0874    4.8477   -4.2943 H   0  0  0  0  0  0  0  0  0  0  0  0
    1.8531   -3.2657    2.8560 H   0  0  0  0  0  0  0  0  0  0  0  0
    2.5027   -5.1470    1.7862 H   0  0  0  0  0  0  0  0  0  0  0  0
    0.9282   -5.7133    1.3065 H   0  0  0  0  0  0  0  0  0  0  0  0
    2.2620   -5.0390   -0.5923 H   0  0  0  0  0  0  0  0  0  0  0  0
    2.8140   -3.5372    0.2543 H   0  0  0  0  0  0  0  0  0  0  0  0
    1.5857   -2.8942   -1.5747 H   0  0  0  0  0  0  0  0  0  0  0  0
    0.6069   -2.4950   -0.1795 H   0  0  0  0  0  0  0  0  0  0  0  0
    0.1255   -4.7266   -2.1655 H   0  0  0  0  0  0  0  0  0  0  0  0
   -0.7365   -3.1957   -2.0099 H   0  0  0  0  0  0  0  0  0  0  0  0
   -1.7481   -3.8347    0.0654 H   0  0  0  0  0  0  0  0  0  0  0  0
   -0.9186   -5.4939    0.0447 H   0  0  0  0  0  0  0  0  0  0  0  0
   -2.8362   -4.2622   -1.9990 H   0  0  0  0  0  0  0  0  0  0  0  0
   -1.9118   -5.7486   -2.2952 H   0  0  0  0  0  0  0  0  0  0  0  0
   -3.1559   -6.9166   -0.4781 H   0  0  0  0  0  0  0  0  0  0  0  0
   -4.1806   -6.1854   -1.6870 H   0  0  0  0  0  0  0  0  0  0  0  0
   -4.8744   -4.3595   -0.3581 H   0  0  0  0  0  0  0  0  0  0  0  0
   -5.3296   -5.9051    0.3317 H   0  0  0  0  0  0  0  0  0  0  0  0
   -3.4842   -3.7236    1.4693 H   0  0  0  0  0  0  0  0  0  0  0  0
   -4.8970   -4.5507    2.0573 H   0  0  0  0  0  0  0  0  0  0  0  0
   -2.3054   -6.1976    1.8545 H   0  0  0  0  0  0  0  0  0  0  0  0
   -3.9677   -6.5259    2.5710 H   0  0  0  0  0  0  0  0  0  0  0  0
   -2.1248   -4.2433    3.3288 H   0  0  0  0  0  0  0  0  0  0  0  0
   -2.1057   -5.7765    4.1956 H   0  0  0  0  0  0  0  0  0  0  0  0
   -4.3832   -3.7442    3.8325 H   0  0  0  0  0  0  0  0  0  0  0  0
   -4.5943   -5.3530    4.6458 H   0  0  0  0  0  0  0  0  0  0  0  0
   -2.5278   -3.1211    5.3485 H   0  0  0  0  0  0  0  0  0  0  0  0
   -2.6211   -4.6933    6.1187 H   0  0  0  0  0  0  0  0  0  0  0  0
   -4.6484   -4.2632    7.2409 H   0  0  0  0  0  0  0  0  0  0  0  0
   -3.3776   -3.0789    7.5777 H   0  0  0  0  0  0  0  0  0  0  0  0
   -5.5257   -2.0115    7.5953 H   0  0  0  0  0  0  0  0  0  0  0  0
   -4.6122   -1.2978    6.2748 H   0  0  0  0  0  0  0  0  0  0  0  0
   -6.8955   -3.4117    6.0640 H   0  0  0  0  0  0  0  0  0  0  0  0
   -6.0927   -2.7318    4.6336 H   0  0  0  0  0  0  0  0  0  0  0  0
   -6.7587   -0.4668    5.1639 H   0  0  0  0  0  0  0  0  0  0  0  0
   -7.4315   -1.0796    6.7521 H   0  0  0  0  0  0  0  0  0  0  0  0
   -8.1715   -1.6044    5.2175 H   0  0  0  0  0  0  0  0  0  0  0  0
   -2.1641    0.6151    3.6394 H   0  0  0  0  0  0  0  0  0  0  0  0
   -2.3015    3.0566    3.4526 H   0  0  0  0  0  0  0  0  0  0  0  0
   -1.5852    2.4107    1.9804 H   0  0  0  0  0  0  0  0  0  0  0  0
   -0.0886    3.8727    4.2126 H   0  0  0  0  0  0  0  0  0  0  0  0
   -0.4795    4.3329    2.5651 H   0  0  0  0  0  0  0  0  0  0  0  0
    1.0080    2.3007    1.7475 H   0  0  0  0  0  0  0  0  0  0  0  0
    1.3320    2.0142    3.4841 H   0  0  0  0  0  0  0  0  0  0  0  0
    2.0703    4.2140    3.8691 H   0  0  0  0  0  0  0  0  0  0  0  0
    3.1603    3.2862    2.8382 H   0  0  0  0  0  0  0  0  0  0  0  0
    1.0876    5.4375    2.0301 H   0  0  0  0  0  0  0  0  0  0  0  0
    2.8349    5.7207    2.2262 H   0  0  0  0  0  0  0  0  0  0  0  0
    2.1278    5.5127   -0.1212 H   0  0  0  0  0  0  0  0  0  0  0  0
    1.4985    3.8727    0.1629 H   0  0  0  0  0  0  0  0  0  0  0  0
    3.9386    3.2315    0.8793 H   0  0  0  0  0  0  0  0  0  0  0  0
    4.4185    4.8736    0.4688 H   0  0  0  0  0  0  0  0  0  0  0  0
    3.7685    4.5141   -1.8956 H   0  0  0  0  0  0  0  0  0  0  0  0
    3.2195    2.8766   -1.5171 H   0  0  0  0  0  0  0  0  0  0  0  0
    5.4642    2.3420   -0.6113 H   0  0  0  0  0  0  0  0  0  0  0  0
    6.0270    4.0251   -1.0169 H   0  0  0  0  0  0  0  0  0  0  0  0
    6.7456    2.5636   -2.7874 H   0  0  0  0  0  0  0  0  0  0  0  0
    5.4394    3.5818   -3.3965 H   0  0  0  0  0  0  0  0  0  0  0  0
    3.7803    1.7564   -3.0949 H   0  0  0  0  0  0  0  0  0  0  0  0
    5.0197    0.7361   -2.3254 H   0  0  0  0  0  0  0  0  0  0  0  0
    4.5279    0.1362   -4.7008 H   0  0  0  0  0  0  0  0  0  0  0  0
    4.9138    1.7817   -5.2186 H   0  0  0  0  0  0  0  0  0  0  0  0
    7.2699    1.5248   -4.6236 H   0  0  0  0  0  0  0  0  0  0  0  0
    6.7206    0.2369   -5.7139 H   0  0  0  0  0  0  0  0  0  0  0  0
    7.2355    0.0091   -2.6733 H   0  0  0  0  0  0  0  0  0  0  0  0
    8.2416   -0.5402   -4.0090 H   0  0  0  0  0  0  0  0  0  0  0  0
    5.4420   -1.7267   -3.5345 H   0  0  0  0  0  0  0  0  0  0  0  0
    6.6781   -2.2735   -4.6902 H   0  0  0  0  0  0  0  0  0  0  0  0
    8.3404   -2.6110   -2.9026 H   0  0  0  0  0  0  0  0  0  0  0  0
    7.1718   -2.0432   -1.6846 H   0  0  0  0  0  0  0  0  0  0  0  0
    6.5191   -4.4220   -3.5248 H   0  0  0  0  0  0  0  0  0  0  0  0
    7.5155   -4.5791   -2.0547 H   0  0  0  0  0  0  0  0  0  0  0  0
    5.8542   -4.0358   -1.8860 H   0  0  0  0  0  0  0  0  0  0  0  0
    1.3157   -4.8440    4.1076 H   0  0  0  0  0  0  0  0  0  0  0  0
   -1.6778    1.9513    5.4422 H   0  0  0  0  0  0  0  0  0  0  0  0
   -2.6471   -0.7404   -0.8398 H   0  0  0  0  0  0  0  0  0  0  0  0
   -0.3627    0.2095   -3.2699 H   0  0  0  0  0  0  0  0  0  0  0  0
    0.1735    1.0059   -0.5368 H   0  0  0  0  0  0  0  0  0  0  0  0
  1  2  1  0
  1 52  1  0
  2  3  1  0
  2 46  1  0
  3 47  1  0
  4  5  1  0
  4 53  1  0
 45  5  1  1
  6 45  1  0
  7 45  1  0
  8 45  1  0
  9 10  1  0
  9 47  1  0
  9 48  1  0
 10 11  1  0
 11 12  1  0
 12 13  1  0
 13 14  1  0
 14 15  1  0
 15 16  1  0
 16 17  1  0
 17 18  1  0
 18 19  1  0
 19 20  1  0
 20 21  1  0
 21 22  1  0
 22 23  1  0
 23 24  1  0
 24 25  1  0
 25 26  1  0
 27 28  1  0
 27 46  1  0
 27 49  1  0
 28 29  1  0
 29 30  1  0
 30 31  1  0
 31 32  1  0
 32 33  1  0
 33 34  1  0
 34 35  1  0
 35 36  1  0
 36 37  1  0
 37 38  1  0
 38 39  1  0
 39 40  1  0
 40 41  1  0
 41 42  1  0
 42 43  1  0
 43 44  1  0
 50 54  1  0
 51 54  1  0
 52 54  1  0
 53 54  1  0
  1 55  1  0
  1 56  1  0
  2 57  1  1
  3 58  1  0
  3 59  1  0
  4 60  1  0
  4 61  1  0
  5 62  1  0
  5 63  1  0
  6 64  1  0
  6 65  1  0
  6 66  1  0
  7 67  1  0
  7 68  1  0
  7 69  1  0
  8 70  1  0
  8 71  1  0
  8 72  1  0
  9 73  1  0
 10 74  1  0
 10 75  1  0
 11 76  1  0
 11 77  1  0
 12 78  1  0
 12 79  1  0
 13 80  1  0
 13 81  1  0
 14 82  1  0
 14 83  1  0
 15 84  1  0
 15 85  1  0
 16 86  1  0
 16 87  1  0
 17 88  1  0
 17 89  1  0
 18 90  1  0
 18 91  1  0
 19 92  1  0
 19 93  1  0
 20 94  1  0
 20 95  1  0
 21 96  1  0
 21 97  1  0
 22 98  1  0
 22 99  1  0
 23100  1  0
 23101  1  0
 24102  1  0
 24103  1  0
 25104  1  0
 25105  1  0
 26106  1  0
 26107  1  0
 26108  1  0
 27109  1  1
 28110  1  0
 28111  1  0
 29112  1  0
 29113  1  0
 30114  1  0
 30115  1  0
 31116  1  0
 31117  1  0
 32118  1  0
 32119  1  0
 33120  1  0
 33121  1  0
 34122  1  0
 34123  1  0
 35124  1  0
 35125  1  0
 36126  1  0
 36127  1  0
 37128  1  0
 37129  1  0
 38130  1  0
 38131  1  0
 39132  1  0
 39133  1  0
 40134  1  0
 40135  1  0
 41136  1  0
 41137  1  0
 42138  1  0
 42139  1  0
 43140  1  0
 43141  1  0
 44142  1  0
 44143  1  0
 44144  1  0
 48145  1  0
 49146  1  0
 50147  1  0
 51148  1  0
 54149  1  0
M  CHG  1  45   1
M  END
$$$$
PHOSPHATIDYLCHOLINE TRANSFER PROTEIN
     RDKit          3D

149148  0  0  0  0  0  0  0  0999 V2000
    2.6356   -3.1365   -3.9141 C   0  0  0  0  0  0  0  0  0  0  0  0
    1.5435   -3.0986   -2.8786 C   0  0  1  0  0  0  0  0  0  0  0  0
    0.1798   -2.8484   -3.5220 C   0  0  0  0  0  0  0  0  0  0  0  0
    5.1855   -0.1564   -3.5068 C   0  0  0  0  0  0  0  0  0  0  0  0
    4.7696    1.0570   -2.7248 C   0  0  0  0  0  0  0  0  0  0  0  0
    2.4315    1.1656   -2.1968 C   0  0  0  0  0  0  0  0  0  0  0  0
    3.1115    1.3354   -4.4402 C   0  0  0  0  0  0  0  0  0  0  0  0
    3.5884    3.0473   -2.9416 C   0  0  0  0  0  0  0  0  0  0  0  0
   -2.0308   -2.3395   -2.9519 C   0  0  0  0  0  0  0  0  0  0  0  0
   -2.6316   -1.2389   -2.1467 C   0  0  0  0  0  0  0  0  0  0  0  0
   -3.9991   -0.7884   -2.5698 C   0  0  0  0  0  0  0  0  0  0  0  0
   -4.5288    0.2472   -1.6434 C   0  0  0  0  0  0  0  0  0  0  0  0
   -3.6967    1.4768   -1.5213 C   0  0  0  0  0  0  0  0  0  0  0  0
   -4.3644    2.4232   -0.5344 C   0  0  0  0  0  0  0  0  0  0  0  0
   -3.5691    3.6972   -0.3232 C   0  0  0  0  0  0  0  0  0  0  0  0
   -4.3019    4.5622    0.6834 C   0  0  0  0  0  0  0  0  0  0  0  0
   -3.6617    5.8356    1.0242 C   0  0  0  0  0  0  0  0  0  0  0  0
   -3.3310    6.8527    0.0270 C   0  0  0  0  0  0  0  0  0  0  0  0
   -4.3582    7.5072   -0.8079 C   0  0  0  0  0  0  0  0  0  0  0  0
   -5.1322    6.6472   -1.7367 C   0  0  0  0  0  0  0  0  0  0  0  0
   -6.1134    7.4806   -2.5738 C   0  0  0  0  0  0  0  0  0  0  0  0
   -5.4684    8.4986   -3.4117 C   0  0  0  0  0  0  0  0  0  0  0  0
   -4.5118    8.1271   -4.4771 C   0  0  0  0  0  0  0  0  0  0  0  0
   -4.9617    7.3462   -5.6503 C   0  0  0  0  0  0  0  0  0  0  0  0
   -5.4915    5.9783   -5.5104 C   0  0  0  0  0  0  0  0  0  0  0  0
   -4.5254    4.9849   -4.9114 C   0  0  0  0  0  0  0  0  0  0  0  0
    1.7182   -3.6707   -0.7444 C   0  0  1  0  0  0  0  0  0  0  0  0
    2.6782   -4.3315    0.1617 C   0  0  0  0  0  0  0  0  0  0  0  0
    4.0868   -4.4509   -0.2770 C   0  0  0  0  0  0  0  0  0  0  0  0
    5.0028   -5.0684    0.7567 C   0  0  0  0  0  0  0  0  0  0  0  0
    5.0535   -4.1437    1.9851 C   0  0  0  0  0  0  0  0  0  0  0  0
    5.9346   -4.7210    3.0433 C   0  0  0  0  0  0  0  0  0  0  0  0
    6.1659   -3.7830    4.1591 C   0  0  0  0  0  0  0  0  0  0  0  0
    5.1381   -3.1751    4.9909 C   0  0  0  0  0  0  0  0  0  0  0  0
    4.1512   -2.2382    4.4308 C   0  0  0  0  0  0  0  0  0  0  0  0
    3.2481   -1.6810    5.5228 C   0  0  0  0  0  0  0  0  0  0  0  0
    2.4679   -2.6908    6.2770 C   0  0  0  0  0  0  0  0  0  0  0  0
    1.5441   -3.5456    5.4843 C   0  0  0  0  0  0  0  0  0  0  0  0
    0.7814   -4.4870    6.3582 C   0  0  0  0  0  0  0  0  0  0  0  0
    1.6066   -5.4341    7.1697 C   0  0  0  0  0  0  0  0  0  0  0  0
    0.6521   -6.2937    7.9785 C   0  0  0  0  0  0  0  0  0  0  0  0
    1.3504   -7.2917    8.8546 C   0  0  0  0  0  0  0  0  0  0  0  0
    2.2093   -8.2411    8.0592 C   0  0  0  0  0  0  0  0  0  0  0  0
    1.3590   -9.0004    7.0706 C   0  0  0  0  0  0  0  0  0  0  0  0
    3.5042    1.6030   -3.0725 N   0  0  2  0  0  0  0  0  0  0  0  0
    1.5363   -4.1881   -2.0107 O   0  0  0  0  0  0  0  0  0  0  0  0
   -0.7748   -2.6968   -2.5331 O   0  0  0  0  0  0  0  0  0  0  0  0
   -2.9136   -3.4629   -2.8528 O   0  0  0  0  0  0  0  0  0  0  0  0
    0.4449   -3.7940   -0.1145 O   0  0  0  0  0  0  0  0  0  0  0  0
    5.6146   -1.7962   -5.5982 O   0  0  0  0  0  0  0  0  0  0  0  0
    6.5303   -3.0286   -3.4164 O   0  0  0  0  0  0  0  0  0  0  0  0
    3.8419   -3.1392   -3.2189 O   0  0  0  0  0  0  0  0  0  0  0  0
    4.3361   -1.2148   -3.3943 O   0  0  0  0  0  0  0  0  0  0  0  0
    5.1020   -2.5293   -4.1661 P   0  0  0  0  0  0  0  0  0  0  0  0
    2.5497   -4.0152   -4.5867 H   0  0  0  0  0  0  0  0  0  0  0  0
    2.5870   -2.1786   -4.4664 H   0  0  0  0  0  0  0  0  0  0  0  0
    1.7274   -2.1316   -2.3139 H   0  0  0  0  0  0  0  0  0  0  0  0
   -0.0360   -3.6733   -4.2003 H   0  0  0  0  0  0  0  0  0  0  0  0
    0.2308   -1.8977   -4.1043 H   0  0  0  0  0  0  0  0  0  0  0  0
    6.1830   -0.4954   -3.0970 H   0  0  0  0  0  0  0  0  0  0  0  0
    5.4259    0.1714   -4.5355 H   0  0  0  0  0  0  0  0  0  0  0  0
    5.5382    1.8524   -2.7837 H   0  0  0  0  0  0  0  0  0  0  0  0
    4.7182    0.7778   -1.6308 H   0  0  0  0  0  0  0  0  0  0  0  0
    1.9894    0.2131   -2.5147 H   0  0  0  0  0  0  0  0  0  0  0  0
    1.6935    1.9918   -2.1447 H   0  0  0  0  0  0  0  0  0  0  0  0
    2.8706    1.0769   -1.1696 H   0  0  0  0  0  0  0  0  0  0  0  0
    2.1140    1.7913   -4.5877 H   0  0  0  0  0  0  0  0  0  0  0  0
    3.8468    1.8224   -5.1129 H   0  0  0  0  0  0  0  0  0  0  0  0
    2.9959    0.2627   -4.6546 H   0  0  0  0  0  0  0  0  0  0  0  0
    2.6739    3.4680   -2.4741 H   0  0  0  0  0  0  0  0  0  0  0  0
    4.4424    3.3634   -2.2822 H   0  0  0  0  0  0  0  0  0  0  0  0
    3.7916    3.5322   -3.9326 H   0  0  0  0  0  0  0  0  0  0  0  0
   -2.0448   -2.1150   -4.0206 H   0  0  0  0  0  0  0  0  0  0  0  0
   -2.7260   -1.5813   -1.0784 H   0  0  0  0  0  0  0  0  0  0  0  0
   -1.9904   -0.3195   -2.1541 H   0  0  0  0  0  0  0  0  0  0  0  0
   -4.6887   -1.6604   -2.5447 H   0  0  0  0  0  0  0  0  0  0  0  0
   -3.9187   -0.3513   -3.5897 H   0  0  0  0  0  0  0  0  0  0  0  0
   -4.7869   -0.1774   -0.6465 H   0  0  0  0  0  0  0  0  0  0  0  0
   -5.5244    0.5787   -2.0664 H   0  0  0  0  0  0  0  0  0  0  0  0
   -2.6635    1.2841   -1.1831 H   0  0  0  0  0  0  0  0  0  0  0  0
   -3.6196    1.9547   -2.5246 H   0  0  0  0  0  0  0  0  0  0  0  0
   -4.5264    1.8808    0.4036 H   0  0  0  0  0  0  0  0  0  0  0  0
   -5.3661    2.6821   -0.9391 H   0  0  0  0  0  0  0  0  0  0  0  0
   -3.2801    4.2021   -1.2384 H   0  0  0  0  0  0  0  0  0  0  0  0
   -2.6185    3.3638    0.1883 H   0  0  0  0  0  0  0  0  0  0  0  0
   -5.3690    4.6113    0.4621 H   0  0  0  0  0  0  0  0  0  0  0  0
   -4.3081    3.9629    1.6900 H   0  0  0  0  0  0  0  0  0  0  0  0
   -4.3767    6.3497    1.7678 H   0  0  0  0  0  0  0  0  0  0  0  0
   -2.7795    5.6039    1.7048 H   0  0  0  0  0  0  0  0  0  0  0  0
   -2.5195    6.5151   -0.6938 H   0  0  0  0  0  0  0  0  0  0  0  0
   -2.7529    7.6685    0.6069 H   0  0  0  0  0  0  0  0  0  0  0  0
   -3.8723    8.3605   -1.3890 H   0  0  0  0  0  0  0  0  0  0  0  0
   -5.0569    8.0728   -0.1064 H   0  0  0  0  0  0  0  0  0  0  0  0
   -5.7953    5.9549   -1.1901 H   0  0  0  0  0  0  0  0  0  0  0  0
   -4.4391    6.0660   -2.3393 H   0  0  0  0  0  0  0  0  0  0  0  0
   -6.7622    6.8075   -3.1242 H   0  0  0  0  0  0  0  0  0  0  0  0
   -6.6933    8.0473   -1.7786 H   0  0  0  0  0  0  0  0  0  0  0  0
   -6.3193    9.0464   -3.9553 H   0  0  0  0  0  0  0  0  0  0  0  0
   -5.0251    9.3386   -2.7710 H   0  0  0  0  0  0  0  0  0  0  0  0
   -4.1610    9.1335   -4.9153 H   0  0  0  0  0  0  0  0  0  0  0  0
   -3.5660    7.6583   -4.0331 H   0  0  0  0  0  0  0  0  0  0  0  0
   -4.1011    7.2735   -6.4067 H   0  0  0  0  0  0  0  0  0  0  0  0
   -5.7591    7.9640   -6.1665 H   0  0  0  0  0  0  0  0  0  0  0  0
   -6.5266    5.8662   -5.1396 H   0  0  0  0  0  0  0  0  0  0  0  0
   -5.6024    5.6039   -6.5997 H   0  0  0  0  0  0  0  0  0  0  0  0
   -5.0607    4.4592   -4.0767 H   0  0  0  0  0  0  0  0  0  0  0  0
   -3.6253    5.5089   -4.5244 H   0  0  0  0  0  0  0  0  0  0  0  0
   -4.2171    4.2026   -5.6106 H   0  0  0  0  0  0  0  0  0  0  0  0
    1.8589   -2.5744   -0.7987 H   0  0  0  0  0  0  0  0  0  0  0  0
    2.3127   -5.3697    0.4259 H   0  0  0  0  0  0  0  0  0  0  0  0
    2.5696   -3.7886    1.1497 H   0  0  0  0  0  0  0  0  0  0  0  0
    4.5226   -3.4785   -0.5929 H   0  0  0  0  0  0  0  0  0  0  0  0
    4.1338   -5.1064   -1.1710 H   0  0  0  0  0  0  0  0  0  0  0  0
    4.7178   -6.0553    1.1010 H   0  0  0  0  0  0  0  0  0  0  0  0
    6.0377   -5.1040    0.3697 H   0  0  0  0  0  0  0  0  0  0  0  0
    4.0297   -4.1576    2.4430 H   0  0  0  0  0  0  0  0  0  0  0  0
    5.4341   -3.1951    1.6539 H   0  0  0  0  0  0  0  0  0  0  0  0
    6.9323   -5.0350    2.6304 H   0  0  0  0  0  0  0  0  0  0  0  0
    5.4438   -5.6520    3.5004 H   0  0  0  0  0  0  0  0  0  0  0  0
    6.7459   -2.8925    3.6936 H   0  0  0  0  0  0  0  0  0  0  0  0
    7.0250   -4.2025    4.8288 H   0  0  0  0  0  0  0  0  0  0  0  0
    5.6978   -2.5761    5.7965 H   0  0  0  0  0  0  0  0  0  0  0  0
    4.6618   -3.9768    5.6326 H   0  0  0  0  0  0  0  0  0  0  0  0
    3.4713   -2.5436    3.6543 H   0  0  0  0  0  0  0  0  0  0  0  0
    4.6997   -1.3480    4.0297 H   0  0  0  0  0  0  0  0  0  0  0  0
    3.7830   -0.9900    6.1847 H   0  0  0  0  0  0  0  0  0  0  0  0
    2.4959   -1.0308    4.9832 H   0  0  0  0  0  0  0  0  0  0  0  0
    3.0944   -3.3699    6.8969 H   0  0  0  0  0  0  0  0  0  0  0  0
    1.8343   -2.1270    7.0108 H   0  0  0  0  0  0  0  0  0  0  0  0
    0.8142   -2.9401    4.9140 H   0  0  0  0  0  0  0  0  0  0  0  0
    2.1796   -4.1258    4.7515 H   0  0  0  0  0  0  0  0  0  0  0  0
    0.1610   -3.8859    7.0550 H   0  0  0  0  0  0  0  0  0  0  0  0
    0.0419   -5.0286    5.7167 H   0  0  0  0  0  0  0  0  0  0  0  0
    2.2584   -6.0439    6.5466 H   0  0  0  0  0  0  0  0  0  0  0  0
    2.2080   -4.8626    7.9137 H   0  0  0  0  0  0  0  0  0  0  0  0
    0.0491   -6.8468    7.2325 H   0  0  0  0  0  0  0  0  0  0  0  0
   -0.0271   -5.6409    8.5641 H   0  0  0  0  0  0  0  0  0  0  0  0
    0.5545   -7.9218    9.3519 H   0  0  0  0  0  0  0  0  0  0  0  0
    1.9500   -6.7859    9.6628 H   0  0  0  0  0  0  0  0  0  0  0  0
    2.9691   -7.6752    7.5107 H   0  0  0  0  0  0  0  0  0  0  0  0
    2.6736   -8.9815    8.7631 H   0  0  0  0  0  0  0  0  0  0  0  0
    1.5658  -10.0896    7.1594 H   0  0  0  0  0  0  0  0  0  0  0  0
    0.2808   -8.8573    7.3073 H   0  0  0  0  0  0  0  0  0  0  0  0
    1.5608   -8.6330    6.0511 H   0  0  0  0  0  0  0  0  0  0  0  0
   -2.7778   -3.8714   -1.9799 H   0  0  0  0  0  0  0  0  0  0  0  0
    0.5276   -4.0269    0.8312 H   0  0  0  0  0  0  0  0  0  0  0  0
    4.9255   -1.1634   -5.9770 H   0  0  0  0  0  0  0  0  0  0  0  0
    6.3037   -3.3401   -2.4887 H   0  0  0  0  0  0  0  0  0  0  0  0
    5.1433   -3.4297   -5.2067 H   0  0  0  0  0  0  0  0  0  0  0  0
  1  2  1  0
  1 52  1  0
  2  3  1  0
  2 46  1  0
  3 47  1  0
  4  5  1  0
  4 53  1  0
 45  5  1  1
  6 45  1  0
  7 45  1  0
  8 45  1  0
  9 10  1  0
  9 47  1  0
  9 48  1  0
 10 11  1  0
 11 12  1  0
 12 13  1  0
 13 14  1  0
 14 15  1  0
 15 16  1  0
 16 17  1  0
 17 18  1  0
 18 19  1  0
 19 20  1  0
 20 21  1  0
 21 22  1  0
 22 23  1  0
 23 24  1  0
 24 25  1  0
 25 26  1  0
 27 28  1  0
 27 46  1  0
 27 49  1  0
 28 29  1  0
 29 30  1  0
 30 31  1  0
 31 32  1  0
 32 33  1  0
 33 34  1  0
 34 35  1  0
 35 36  1  0
 36 37  1  0
 37 38  1  0
 38 39  1  0
 39 40  1  0
 40 41  1  0
 41 42  1  0
 42 43  1  0
 43 44  1  0
 50 54  1  0
 51 54  1  0
 52 54  1  0
 53 54  1  0
  1 55  1  0
  1 56  1  0
  2 57  1  1
  3 58  1  0
  3 59  1  0
  4 60  1  0
  4 61  1  0
  5 62  1  0
  5 63  1  0
  6 64  1  0
  6 65  1  0
  6 66  1  0
  7 67  1  0
  7 68  1  0
  7 69  1  0
  8 70  1  0
  8 71  1  0
  8 72  1  0
  9 73  1  0
 10 74  1  0
 10 75  1  0
 11 76  1  0
 11 77  1  0
 12 78  1  0
 12 79  1  0
 13 80  1  0
 13 81  1  0
 14 82  1  0
 14 83  1  0
 15 84  1  0
 15 85  1  0
 16 86  1  0
 16 87  1  0
 17 88  1  0
 17 89  1  0
 18 90  1  0
 18 91  1  0
 19 92  1  0
 19 93  1  0
 20 94  1  0
 20 95  1  0
 21 96  1  0
 21 97  1  0
 22 98  1  0
 22 99  1  0
 23100  1  0
 23101  1  0
 24102  1  0
 24103  1  0
 25104  1  0
 25105  1  0
 26106  1  0
 26107  1  0
 26108  1  0
 27109  1  6
 28110  1  0
 28111  1  0
 29112  1  0
 29113  1  0
 30114  1  0
 30115  1  0
 31116  1  0
 31117  1  0
 32118  1  0
 32119  1  0
 33120  1  0
 33121  1  0
 34122  1  0
 34123  1  0
 35124  1  0
 35125  1  0
 36126  1  0
 36127  1  0
 37128  1  0
 37129  1  0
 38130  1  0
 38131  1  0
 39132  1  0
 39133  1  0
 40134  1  0
 40135  1  0
 41136  1  0
 41137  1  0
 42138  1  0
 42139  1  0
 43140  1  0
 43141  1  0
 44142  1  0
 44143  1  0
 44144  1  0
 48145  1  0
 49146  1  0
 50147  1  0
 51148  1  0
 54149  1  0
M  CHG  1  45   1
M  END
$$$$
PHOSPHATIDYLCHOLINE TRANSFER PROTEIN
     RDKit          3D

149148  0  0  0  0  0  0  0  0999 V2000
    0.7778   -1.3267   -2.0045 C   0  0  0  0  0  0  0  0  0  0  0  0
    1.5549   -1.5203   -3.2764 C   0  0  1  0  0  0  0  0  0  0  0  0
    0.5552   -1.5667   -4.4114 C   0  0  0  0  0  0  0  0  0  0  0  0
    1.3847    3.2260   -3.2478 C   0  0  0  0  0  0  0  0  0  0  0  0
    2.4599    4.2089   -3.5133 C   0  0  0  0  0  0  0  0  0  0  0  0
    3.5956    6.2054   -3.2183 C   0  0  0  0  0  0  0  0  0  0  0  0
    3.1913    4.9359   -1.3220 C   0  0  0  0  0  0  0  0  0  0  0  0
    1.4467    6.0796   -2.3650 C   0  0  0  0  0  0  0  0  0  0  0  0
   -1.1896   -0.5422   -5.5133 C   0  0  0  0  0  0  0  0  0  0  0  0
   -2.6658   -0.4847   -5.3138 C   0  0  0  0  0  0  0  0  0  0  0  0
   -3.3290   -1.5781   -4.5795 C   0  0  0  0  0  0  0  0  0  0  0  0
   -2.9496   -1.7998   -3.1470 C   0  0  0  0  0  0  0  0  0  0  0  0
   -3.7599   -2.9764   -2.6007 C   0  0  0  0  0  0  0  0  0  0  0  0
   -3.4630   -3.2576   -1.1616 C   0  0  0  0  0  0  0  0  0  0  0  0
   -4.3210   -4.4648   -0.7807 C   0  0  0  0  0  0  0  0  0  0  0  0
   -4.1328   -4.8581    0.6453 C   0  0  0  0  0  0  0  0  0  0  0  0
   -4.5138   -3.8290    1.6613 C   0  0  0  0  0  0  0  0  0  0  0  0
   -4.2572   -4.3117    3.0880 C   0  0  0  0  0  0  0  0  0  0  0  0
   -2.7840   -4.6245    3.3196 C   0  0  0  0  0  0  0  0  0  0  0  0
   -1.9262   -3.4037    3.0927 C   0  0  0  0  0  0  0  0  0  0  0  0
   -0.4557   -3.6766    3.3195 C   0  0  0  0  0  0  0  0  0  0  0  0
   -0.1290   -4.1462    4.7040 C   0  0  0  0  0  0  0  0  0  0  0  0
    1.3548   -4.3645    4.8084 C   0  0  0  0  0  0  0  0  0  0  0  0
    1.8942   -5.3910    3.8504 C   0  0  0  0  0  0  0  0  0  0  0  0
    3.3917   -5.5572    4.0123 C   0  0  0  0  0  0  0  0  0  0  0  0
    3.8604   -6.6160    3.0049 C   0  0  0  0  0  0  0  0  0  0  0  0
    3.7100   -0.7923   -3.5429 C   0  0  1  0  0  0  0  0  0  0  0  0
    4.5546   -0.7155   -2.3265 C   0  0  0  0  0  0  0  0  0  0  0  0
    4.7407    0.6113   -1.6680 C   0  0  0  0  0  0  0  0  0  0  0  0
    5.6199    0.3128   -0.4452 C   0  0  0  0  0  0  0  0  0  0  0  0
    5.9277    1.4658    0.4067 C   0  0  0  0  0  0  0  0  0  0  0  0
    4.7385    2.1781    0.9855 C   0  0  0  0  0  0  0  0  0  0  0  0
    3.8340    1.3128    1.8209 C   0  0  0  0  0  0  0  0  0  0  0  0
    2.7039    2.1695    2.3338 C   0  0  0  0  0  0  0  0  0  0  0  0
    1.6850    1.4239    3.1439 C   0  0  0  0  0  0  0  0  0  0  0  0
    0.5838    2.3698    3.6440 C   0  0  0  0  0  0  0  0  0  0  0  0
   -0.4043    1.5070    4.4035 C   0  0  0  0  0  0  0  0  0  0  0  0
   -1.5342    2.3415    4.9645 C   0  0  0  0  0  0  0  0  0  0  0  0
   -2.4937    1.4158    5.6778 C   0  0  0  0  0  0  0  0  0  0  0  0
   -3.6431    2.1595    6.2874 C   0  0  0  0  0  0  0  0  0  0  0  0
   -4.4721    2.9490    5.3298 C   0  0  0  0  0  0  0  0  0  0  0  0
   -5.1220    2.1764    4.2345 C   0  0  0  0  0  0  0  0  0  0  0  0
   -5.9207    3.1822    3.3956 C   0  0  0  0  0  0  0  0  0  0  0  0
   -4.9782    4.2478    2.8302 C   0  0  0  0  0  0  0  0  0  0  0  0
    2.6166    5.2860   -2.5969 N   0  0  2  0  0  0  0  0  0  0  0  0
    2.3768   -0.3746   -3.3601 O   0  0  0  0  0  0  0  0  0  0  0  0
   -0.3643   -0.5491   -4.4332 O   0  0  0  0  0  0  0  0  0  0  0  0
   -0.8303    0.6068   -6.2692 O   0  0  0  0  0  0  0  0  0  0  0  0
    4.2493   -0.1636   -4.6063 O   0  0  0  0  0  0  0  0  0  0  0  0
    1.2586    1.6191   -0.7848 O   0  0  0  0  0  0  0  0  0  0  0  0
   -0.8932    2.0589   -2.8159 O   0  0  0  0  0  0  0  0  0  0  0  0
   -0.0472   -0.2581   -2.1267 O   0  0  0  0  0  0  0  0  0  0  0  0
    1.5562    2.5807   -2.0158 O   0  0  0  0  0  0  0  0  0  0  0  0
    0.4841    1.2569   -2.1826 P   0  0  0  0  0  0  0  0  0  0  0  0
    0.1723   -2.2377   -1.8053 H   0  0  0  0  0  0  0  0  0  0  0  0
    1.4421   -1.2419   -1.1132 H   0  0  0  0  0  0  0  0  0  0  0  0
    2.0803   -2.4616   -3.2799 H   0  0  0  0  0  0  0  0  0  0  0  0
    0.0443   -2.5336   -4.4529 H   0  0  0  0  0  0  0  0  0  0  0  0
    1.1476   -1.4853   -5.3616 H   0  0  0  0  0  0  0  0  0  0  0  0
    0.3707    3.7226   -3.1464 H   0  0  0  0  0  0  0  0  0  0  0  0
    1.3070    2.5149   -4.0710 H   0  0  0  0  0  0  0  0  0  0  0  0
    2.3612    4.6011   -4.5553 H   0  0  0  0  0  0  0  0  0  0  0  0
    3.4409    3.6462   -3.5451 H   0  0  0  0  0  0  0  0  0  0  0  0
    4.4070    5.6021   -3.6499 H   0  0  0  0  0  0  0  0  0  0  0  0
    3.9350    6.9685   -2.5132 H   0  0  0  0  0  0  0  0  0  0  0  0
    3.0116    6.7474   -4.0109 H   0  0  0  0  0  0  0  0  0  0  0  0
    3.3731    5.8826   -0.7665 H   0  0  0  0  0  0  0  0  0  0  0  0
    4.1882    4.4313   -1.4738 H   0  0  0  0  0  0  0  0  0  0  0  0
    2.5301    4.3196   -0.6821 H   0  0  0  0  0  0  0  0  0  0  0  0
    0.5733    5.4898   -2.0158 H   0  0  0  0  0  0  0  0  0  0  0  0
    1.1853    6.7586   -3.2130 H   0  0  0  0  0  0  0  0  0  0  0  0
    1.6965    6.7778   -1.5184 H   0  0  0  0  0  0  0  0  0  0  0  0
   -0.9158   -1.4137   -6.1780 H   0  0  0  0  0  0  0  0  0  0  0  0
   -2.9714    0.5093   -4.8392 H   0  0  0  0  0  0  0  0  0  0  0  0
   -3.1996   -0.4035   -6.3191 H   0  0  0  0  0  0  0  0  0  0  0  0
   -4.4585   -1.4426   -4.5696 H   0  0  0  0  0  0  0  0  0  0  0  0
   -3.2339   -2.5505   -5.1662 H   0  0  0  0  0  0  0  0  0  0  0  0
   -3.2463   -0.9393   -2.5129 H   0  0  0  0  0  0  0  0  0  0  0  0
   -1.8734   -1.9696   -2.9992 H   0  0  0  0  0  0  0  0  0  0  0  0
   -3.5118   -3.8596   -3.1966 H   0  0  0  0  0  0  0  0  0  0  0  0
   -4.8439   -2.7654   -2.6836 H   0  0  0  0  0  0  0  0  0  0  0  0
   -3.7268   -2.4048   -0.5021 H   0  0  0  0  0  0  0  0  0  0  0  0
   -2.4230   -3.5060   -0.9285 H   0  0  0  0  0  0  0  0  0  0  0  0
   -3.9959   -5.3173   -1.4114 H   0  0  0  0  0  0  0  0  0  0  0  0
   -5.3564   -4.1819   -0.9796 H   0  0  0  0  0  0  0  0  0  0  0  0
   -4.8346   -5.7296    0.8211 H   0  0  0  0  0  0  0  0  0  0  0  0
   -3.1288   -5.2874    0.8521 H   0  0  0  0  0  0  0  0  0  0  0  0
   -5.6205   -3.6693    1.6026 H   0  0  0  0  0  0  0  0  0  0  0  0
   -3.9718   -2.8999    1.5234 H   0  0  0  0  0  0  0  0  0  0  0  0
   -4.5188   -3.4772    3.7623 H   0  0  0  0  0  0  0  0  0  0  0  0
   -4.8995   -5.1577    3.3685 H   0  0  0  0  0  0  0  0  0  0  0  0
   -2.4398   -5.5050    2.7613 H   0  0  0  0  0  0  0  0  0  0  0  0
   -2.7122   -4.8390    4.4196 H   0  0  0  0  0  0  0  0  0  0  0  0
   -2.0178   -3.1363    2.0064 H   0  0  0  0  0  0  0  0  0  0  0  0
   -2.2670   -2.5379    3.6674 H   0  0  0  0  0  0  0  0  0  0  0  0
    0.1687   -2.8211    3.0374 H   0  0  0  0  0  0  0  0  0  0  0  0
   -0.1818   -4.4988    2.6250 H   0  0  0  0  0  0  0  0  0  0  0  0
   -0.4073   -3.3413    5.4234 H   0  0  0  0  0  0  0  0  0  0  0  0
   -0.6915   -5.0725    4.9577 H   0  0  0  0  0  0  0  0  0  0  0  0
    1.9143   -3.4076    4.6363 H   0  0  0  0  0  0  0  0  0  0  0  0
    1.6616   -4.6899    5.8275 H   0  0  0  0  0  0  0  0  0  0  0  0
    1.4137   -6.3797    3.9757 H   0  0  0  0  0  0  0  0  0  0  0  0
    1.7654   -4.9734    2.8141 H   0  0  0  0  0  0  0  0  0  0  0  0
    3.8613   -4.6083    3.7110 H   0  0  0  0  0  0  0  0  0  0  0  0
    3.6987   -5.9152    5.0054 H   0  0  0  0  0  0  0  0  0  0  0  0
    3.2450   -7.5247    3.1823 H   0  0  0  0  0  0  0  0  0  0  0  0
    3.5765   -6.2016    1.9936 H   0  0  0  0  0  0  0  0  0  0  0  0
    4.9423   -6.7678    3.0828 H   0  0  0  0  0  0  0  0  0  0  0  0
    3.6397   -1.9295   -3.7362 H   0  0  0  0  0  0  0  0  0  0  0  0
    4.2894   -1.5087   -1.5709 H   0  0  0  0  0  0  0  0  0  0  0  0
    5.5957   -1.0382   -2.6510 H   0  0  0  0  0  0  0  0  0  0  0  0
    5.3562    1.3100   -2.2812 H   0  0  0  0  0  0  0  0  0  0  0  0
    3.8417    1.1523   -1.3993 H   0  0  0  0  0  0  0  0  0  0  0  0
    6.5946   -0.0218   -0.9122 H   0  0  0  0  0  0  0  0  0  0  0  0
    5.1905   -0.5676    0.0300 H   0  0  0  0  0  0  0  0  0  0  0  0
    6.4429    2.2376   -0.2294 H   0  0  0  0  0  0  0  0  0  0  0  0
    6.6231    1.2095    1.2190 H   0  0  0  0  0  0  0  0  0  0  0  0
    4.1882    2.7184    0.1908 H   0  0  0  0  0  0  0  0  0  0  0  0
    5.1319    2.9594    1.6710 H   0  0  0  0  0  0  0  0  0  0  0  0
    3.4657    0.4248    1.3003 H   0  0  0  0  0  0  0  0  0  0  0  0
    4.4233    0.9647    2.7045 H   0  0  0  0  0  0  0  0  0  0  0  0
    3.1987    2.9596    2.9762 H   0  0  0  0  0  0  0  0  0  0  0  0
    2.1832    2.7524    1.5572 H   0  0  0  0  0  0  0  0  0  0  0  0
    1.1671    0.7285    2.4667 H   0  0  0  0  0  0  0  0  0  0  0  0
    2.1109    0.9699    4.0407 H   0  0  0  0  0  0  0  0  0  0  0  0
    0.0742    2.7558    2.7263 H   0  0  0  0  0  0  0  0  0  0  0  0
    0.9759    3.1671    4.2968 H   0  0  0  0  0  0  0  0  0  0  0  0
   -0.8156    0.7383    3.7266 H   0  0  0  0  0  0  0  0  0  0  0  0
    0.1451    1.0002    5.2272 H   0  0  0  0  0  0  0  0  0  0  0  0
   -1.1049    3.0316    5.7485 H   0  0  0  0  0  0  0  0  0  0  0  0
   -2.0425    2.9130    4.1824 H   0  0  0  0  0  0  0  0  0  0  0  0
   -2.7786    0.6039    4.9846 H   0  0  0  0  0  0  0  0  0  0  0  0
   -1.9578    0.9253    6.5342 H   0  0  0  0  0  0  0  0  0  0  0  0
   -3.1868    2.9026    6.9964 H   0  0  0  0  0  0  0  0  0  0  0  0
   -4.2707    1.5032    6.9206 H   0  0  0  0  0  0  0  0  0  0  0  0
   -3.9077    3.8087    4.9127 H   0  0  0  0  0  0  0  0  0  0  0  0
   -5.3072    3.3955    5.9397 H   0  0  0  0  0  0  0  0  0  0  0  0
   -5.8395    1.4260    4.6095 H   0  0  0  0  0  0  0  0  0  0  0  0
   -4.4285    1.6954    3.5170 H   0  0  0  0  0  0  0  0  0  0  0  0
   -6.6920    3.6474    4.0362 H   0  0  0  0  0  0  0  0  0  0  0  0
   -6.4272    2.6844    2.5393 H   0  0  0  0  0  0  0  0  0  0  0  0
   -4.0063    3.7575    2.6510 H   0  0  0  0  0  0  0  0  0  0  0  0
   -5.3814    4.6462    1.8810 H   0  0  0  0  0  0  0  0  0  0  0  0
   -4.8409    5.0426    3.5989 H   0  0  0  0  0  0  0  0  0  0  0  0
   -1.6365    1.1528   -6.4178 H   0  0  0  0  0  0  0  0  0  0  0  0
    4.5045   -0.7681   -5.3333 H   0  0  0  0  0  0  0  0  0  0  0  0
    1.0775    0.9645   -0.0513 H   0  0  0  0  0  0  0  0  0  0  0  0
   -0.6635    2.1355   -3.7965 H   0  0  0  0  0  0  0  0  0  0  0  0
   -0.7895    0.9502   -1.7553 H   0  0  0  0  0  0  0  0  0  0  0  0
  1  2  1  0
  1 52  1  0
  2  3  1  0
  2 46  1  0
  3 47  1  0
  4  5  1  0
  4 53  1  0
 45  5  1  6
  6 45  1  0
  7 45  1  0
  8 45  1  0
  9 10  1  0
  9 47  1  0
  9 48  1  0
 10 11  1  0
 11 12  1  0
 12 13  1  0
 13 14  1  0
 14 15  1  0
 15 16  1  0
 16 17  1  0
 17 18  1  0
 18 19  1  0
 19 20  1  0
 20 21  1  0
 21 22  1  0
 22 23  1  0
 23 24  1  0
 24 25  1  0
 25 26  1  0
 27 28  1  0
 27 46  1  0
 27 49  1  0
 28 29  1  0
 29 30  1  0
 30 31  1  0
 31 32  1  0
 32 33  1  0
 33 34  1  0
 34 35  1  0
 35 36  1  0
 36 37  1  0
 37 38  1  0
 38 39  1  0
 39 40  1  0
 40 41  1  0
 41 42  1  0
 42 43  1  0
 43 44  1  0
 50 54  1  0
 51 54  1  0
 52 54  1  0
 53 54  1  0
  1 55  1  0
  1 56  1  0
  2 57  1  1
  3 58  1  0
  3 59  1  0
  4 60  1  0
  4 61  1  0
  5 62  1  0
  5 63  1  0
  6 64  1  0
  6 65  1  0
  6 66  1  0
  7 67  1  0
  7 68  1  0
  7 69  1  0
  8 70  1  0
  8 71  1  0
  8 72  1  0
  9 73  1  0
 10 74  1  0
 10 75  1  0
 11 76  1  0
 11 77  1  0
 12 78  1  0
 12 79  1  0
 13 80  1  0
 13 81  1  0
 14 82  1  0
 14 83  1  0
 15 84  1  0
 15 85  1  0
 16 86  1  0
 16 87  1  0
 17 88  1  0
 17 89  1  0
 18 90  1  0
 18 91  1  0
 19 92  1  0
 19 93  1  0
 20 94  1  0
 20 95  1  0
 21 96  1  0
 21 97  1  0
 22 98  1  0
 22 99  1  0
 23100  1  0
 23101  1  0
 24102  1  0
 24103  1  0
 25104  1  0
 25105  1  0
 26106  1  0
 26107  1  0
 26108  1  0
 27109  1  6
 28110  1  0
 28111  1  0
 29112  1  0
 29113  1  0
 30114  1  0
 30115  1  0
 31116  1  0
 31117  1  0
 32118  1  0
 32119  1  0
 33120  1  0
 33121  1  0
 34122  1  0
 34123  1  0
 35124  1  0
 35125  1  0
 36126  1  0
 36127  1  0
 37128  1  0
 37129  1  0
 38130  1  0
 38131  1  0
 39132  1  0
 39133  1  0
 40134  1  0
 40135  1  0
 41136  1  0
 41137  1  0
 42138  1  0
 42139  1  0
 43140  1  0
 43141  1  0
 44142  1  0
 44143  1  0
 44144  1  0
 48145  1  0
 49146  1  0
 50147  1  0
 51148  1  0
 54149  1  0
M  CHG  1  45   1
M  END
$$$$
PHOSPHATIDYLCHOLINE TRANSFER PROTEIN
     RDKit          3D

149148  0  0  0  0  0  0  0  0999 V2000
   -2.0201   -0.0106    2.7227 C   0  0  0  0  0  0  0  0  0  0  0  0
   -3.0220   -1.1515    2.5853 C   0  0  1  0  0  0  0  0  0  0  0  0
   -4.4212   -0.6869    2.6286 C   0  0  0  0  0  0  0  0  0  0  0  0
    2.7266   -0.4474    3.2921 C   0  0  0  0  0  0  0  0  0  0  0  0
    3.9526   -0.9905    2.6283 C   0  0  0  0  0  0  0  0  0  0  0  0
    4.4037   -2.6162    4.3604 C   0  0  0  0  0  0  0  0  0  0  0  0
    5.5500   -0.5835    4.3966 C   0  0  0  0  0  0  0  0  0  0  0  0
    5.9991   -2.1384    2.7299 C   0  0  0  0  0  0  0  0  0  0  0  0
   -6.1378    0.3688    3.5019 C   0  0  0  0  0  0  0  0  0  0  0  0
   -6.3862    1.8393    3.6966 C   0  0  0  0  0  0  0  0  0  0  0  0
   -5.4647    2.6894    2.8478 C   0  0  0  0  0  0  0  0  0  0  0  0
   -5.8283    4.1350    3.0868 C   0  0  0  0  0  0  0  0  0  0  0  0
   -4.9330    5.1175    2.3699 C   0  0  0  0  0  0  0  0  0  0  0  0
   -4.9555    4.8748    0.9082 C   0  0  0  0  0  0  0  0  0  0  0  0
   -4.0661    5.8846    0.2072 C   0  0  0  0  0  0  0  0  0  0  0  0
   -2.6451    5.8256    0.6889 C   0  0  0  0  0  0  0  0  0  0  0  0
   -1.7976    6.8476   -0.0863 C   0  0  0  0  0  0  0  0  0  0  0  0
   -0.3991    6.8543    0.3807 C   0  0  0  0  0  0  0  0  0  0  0  0
    0.4397    5.6624    0.3529 C   0  0  0  0  0  0  0  0  0  0  0  0
    0.8233    4.9565   -0.8650 C   0  0  0  0  0  0  0  0  0  0  0  0
   -0.3023    4.3940   -1.6666 C   0  0  0  0  0  0  0  0  0  0  0  0
    0.2262    3.6368   -2.8842 C   0  0  0  0  0  0  0  0  0  0  0  0
   -0.9277    3.1233   -3.6855 C   0  0  0  0  0  0  0  0  0  0  0  0
   -1.7802    2.2077   -2.8770 C   0  0  0  0  0  0  0  0  0  0  0  0
   -2.9474    1.6558   -3.6853 C   0  0  0  0  0  0  0  0  0  0  0  0
   -2.4592    0.8763   -4.8828 C   0  0  0  0  0  0  0  0  0  0  0  0
   -2.3426   -3.1016    1.5843 C   0  0  1  0  0  0  0  0  0  0  0  0
   -1.2019   -3.4071    0.6929 C   0  0  0  0  0  0  0  0  0  0  0  0
   -0.5986   -4.7720    0.8976 C   0  0  0  0  0  0  0  0  0  0  0  0
    0.5423   -4.9851   -0.1200 C   0  0  0  0  0  0  0  0  0  0  0  0
    1.1514   -6.3137    0.1615 C   0  0  0  0  0  0  0  0  0  0  0  0
    2.2589   -6.6740   -0.7908 C   0  0  0  0  0  0  0  0  0  0  0  0
    3.3786   -5.6467   -0.8144 C   0  0  0  0  0  0  0  0  0  0  0  0
    4.4793   -6.0178   -1.7336 C   0  0  0  0  0  0  0  0  0  0  0  0
    5.5314   -5.0053   -1.8391 C   0  0  0  0  0  0  0  0  0  0  0  0
    5.3084   -3.7009   -2.4775 C   0  0  0  0  0  0  0  0  0  0  0  0
    4.2751   -2.7633   -2.0469 C   0  0  0  0  0  0  0  0  0  0  0  0
    4.3953   -1.4618   -2.8693 C   0  0  0  0  0  0  0  0  0  0  0  0
    4.2468   -1.6792   -4.3374 C   0  0  0  0  0  0  0  0  0  0  0  0
    2.9241   -2.3093   -4.7345 C   0  0  0  0  0  0  0  0  0  0  0  0
    2.9080   -2.4738   -6.2300 C   0  0  0  0  0  0  0  0  0  0  0  0
    1.6587   -3.0866   -6.7670 C   0  0  0  0  0  0  0  0  0  0  0  0
    0.4559   -2.2587   -6.4485 C   0  0  0  0  0  0  0  0  0  0  0  0
   -0.8049   -2.9150   -7.0285 C   0  0  0  0  0  0  0  0  0  0  0  0
    4.9297   -1.5390    3.5340 N   0  0  2  0  0  0  0  0  0  0  0  0
   -2.8431   -1.8178    1.3658 O   0  0  0  0  0  0  0  0  0  0  0  0
   -4.8171   -0.0052    3.7964 O   0  0  0  0  0  0  0  0  0  0  0  0
   -6.9471   -0.3080    4.4252 O   0  0  0  0  0  0  0  0  0  0  0  0
   -3.3669   -4.0438    1.3040 O   0  0  0  0  0  0  0  0  0  0  0  0
    1.0691    1.6007    4.3019 O   0  0  0  0  0  0  0  0  0  0  0  0
   -0.0994    2.2486    3.2983 O   0  0  0  0  0  0  0  0  0  0  0  0
   -0.7372   -0.5226    2.6822 O   0  0  0  0  0  0  0  0  0  0  0  0
    1.8375    0.0609    2.3488 O   0  0  0  0  0  0  0  0  0  0  0  0
    0.4273    0.6670    3.0205 P   0  0  0  0  0  0  0  0  0  0  0  0
   -2.2193    0.7777    1.9703 H   0  0  0  0  0  0  0  0  0  0  0  0
   -2.1446    0.4693    3.7140 H   0  0  0  0  0  0  0  0  0  0  0  0
   -2.7950   -1.8275    3.4203 H   0  0  0  0  0  0  0  0  0  0  0  0
   -4.6511    0.0556    1.8050 H   0  0  0  0  0  0  0  0  0  0  0  0
   -5.1718   -1.4886    2.4771 H   0  0  0  0  0  0  0  0  0  0  0  0
    2.3100   -1.2300    3.9400 H   0  0  0  0  0  0  0  0  0  0  0  0
    3.0394    0.4416    3.9036 H   0  0  0  0  0  0  0  0  0  0  0  0
    4.4783   -0.2538    2.0002 H   0  0  0  0  0  0  0  0  0  0  0  0
    3.6323   -1.8170    1.9570 H   0  0  0  0  0  0  0  0  0  0  0  0
    5.3011   -3.2262    4.6746 H   0  0  0  0  0  0  0  0  0  0  0  0
    3.9474   -2.2714    5.2911 H   0  0  0  0  0  0  0  0  0  0  0  0
    3.7663   -3.3090    3.7872 H   0  0  0  0  0  0  0  0  0  0  0  0
    6.0275   -1.1194    5.2441 H   0  0  0  0  0  0  0  0  0  0  0  0
    4.8775    0.2073    4.7282 H   0  0  0  0  0  0  0  0  0  0  0  0
    6.3785   -0.0932    3.8105 H   0  0  0  0  0  0  0  0  0  0  0  0
    6.2527   -1.4424    1.8764 H   0  0  0  0  0  0  0  0  0  0  0  0
    5.7242   -3.1321    2.3500 H   0  0  0  0  0  0  0  0  0  0  0  0
    6.9000   -2.2546    3.3497 H   0  0  0  0  0  0  0  0  0  0  0  0
   -6.3761    0.0060    2.4913 H   0  0  0  0  0  0  0  0  0  0  0  0
   -7.4282    2.0370    3.3786 H   0  0  0  0  0  0  0  0  0  0  0  0
   -6.2934    2.1476    4.7464 H   0  0  0  0  0  0  0  0  0  0  0  0
   -5.5402    2.4164    1.7778 H   0  0  0  0  0  0  0  0  0  0  0  0
   -4.4254    2.4798    3.1903 H   0  0  0  0  0  0  0  0  0  0  0  0
   -5.9053    4.3658    4.1641 H   0  0  0  0  0  0  0  0  0  0  0  0
   -6.8589    4.3215    2.6641 H   0  0  0  0  0  0  0  0  0  0  0  0
   -3.9422    5.1844    2.8425 H   0  0  0  0  0  0  0  0  0  0  0  0
   -5.4201    6.1209    2.5361 H   0  0  0  0  0  0  0  0  0  0  0  0
   -4.6278    3.8338    0.6820 H   0  0  0  0  0  0  0  0  0  0  0  0
   -5.9548    4.9767    0.4546 H   0  0  0  0  0  0  0  0  0  0  0  0
   -4.1144    5.6117   -0.8804 H   0  0  0  0  0  0  0  0  0  0  0  0
   -4.5399    6.8668    0.3832 H   0  0  0  0  0  0  0  0  0  0  0  0
   -2.6362    6.1125    1.7702 H   0  0  0  0  0  0  0  0  0  0  0  0
   -2.1900    4.8386    0.5856 H   0  0  0  0  0  0  0  0  0  0  0  0
   -2.2401    7.8435    0.3005 H   0  0  0  0  0  0  0  0  0  0  0  0
   -2.0284    6.8612   -1.1313 H   0  0  0  0  0  0  0  0  0  0  0  0
   -0.4267    7.1954    1.4795 H   0  0  0  0  0  0  0  0  0  0  0  0
    0.1932    7.7177   -0.0734 H   0  0  0  0  0  0  0  0  0  0  0  0
    1.4038    5.9634    0.9196 H   0  0  0  0  0  0  0  0  0  0  0  0
    0.0389    4.8834    1.1124 H   0  0  0  0  0  0  0  0  0  0  0  0
    1.5603    5.5126   -1.5074 H   0  0  0  0  0  0  0  0  0  0  0  0
    1.4393    4.0432   -0.5558 H   0  0  0  0  0  0  0  0  0  0  0  0
   -0.7925    3.6299   -1.0001 H   0  0  0  0  0  0  0  0  0  0  0  0
   -1.0439    5.0828   -2.0447 H   0  0  0  0  0  0  0  0  0  0  0  0
    0.8778    2.7756   -2.5588 H   0  0  0  0  0  0  0  0  0  0  0  0
    0.7862    4.3732   -3.4773 H   0  0  0  0  0  0  0  0  0  0  0  0
   -0.5671    2.6279   -4.6351 H   0  0  0  0  0  0  0  0  0  0  0  0
   -1.5648    3.9651   -4.0702 H   0  0  0  0  0  0  0  0  0  0  0  0
   -2.2399    2.7681   -2.0367 H   0  0  0  0  0  0  0  0  0  0  0  0
   -1.1826    1.3595   -2.5365 H   0  0  0  0  0  0  0  0  0  0  0  0
   -3.5958    2.4792   -4.0009 H   0  0  0  0  0  0  0  0  0  0  0  0
   -3.5347    0.9687   -3.0496 H   0  0  0  0  0  0  0  0  0  0  0  0
   -2.0555    1.5815   -5.6390 H   0  0  0  0  0  0  0  0  0  0  0  0
   -1.7029    0.1316   -4.5912 H   0  0  0  0  0  0  0  0  0  0  0  0
   -3.3154    0.3361   -5.3140 H   0  0  0  0  0  0  0  0  0  0  0  0
   -2.1340   -3.2254    2.6481 H   0  0  0  0  0  0  0  0  0  0  0  0
   -0.3547   -2.6886    0.8025 H   0  0  0  0  0  0  0  0  0  0  0  0
   -1.5152   -3.2741   -0.3850 H   0  0  0  0  0  0  0  0  0  0  0  0
   -1.3474   -5.5326    0.6447 H   0  0  0  0  0  0  0  0  0  0  0  0
   -0.1511   -4.8449    1.8877 H   0  0  0  0  0  0  0  0  0  0  0  0
    1.2718   -4.1620    0.0388 H   0  0  0  0  0  0  0  0  0  0  0  0
    0.0737   -4.9582   -1.1237 H   0  0  0  0  0  0  0  0  0  0  0  0
    1.5453   -6.3392    1.2006 H   0  0  0  0  0  0  0  0  0  0  0  0
    0.3944   -7.1332    0.0754 H   0  0  0  0  0  0  0  0  0  0  0  0
    2.6749   -7.6455   -0.4068 H   0  0  0  0  0  0  0  0  0  0  0  0
    1.8879   -6.8055   -1.8102 H   0  0  0  0  0  0  0  0  0  0  0  0
    3.8071   -5.7270    0.2526 H   0  0  0  0  0  0  0  0  0  0  0  0
    2.9822   -4.6385   -0.8413 H   0  0  0  0  0  0  0  0  0  0  0  0
    4.1126   -6.4083   -2.7197 H   0  0  0  0  0  0  0  0  0  0  0  0
    4.9642   -6.9470   -1.2833 H   0  0  0  0  0  0  0  0  0  0  0  0
    6.0154   -4.8964   -0.8173 H   0  0  0  0  0  0  0  0  0  0  0  0
    6.3932   -5.4865   -2.4244 H   0  0  0  0  0  0  0  0  0  0  0  0
    6.3033   -3.1429   -2.4201 H   0  0  0  0  0  0  0  0  0  0  0  0
    5.2165   -3.8584   -3.6136 H   0  0  0  0  0  0  0  0  0  0  0  0
    4.2702   -2.4865   -0.9862 H   0  0  0  0  0  0  0  0  0  0  0  0
    3.2237   -3.0781   -2.3051 H   0  0  0  0  0  0  0  0  0  0  0  0
    5.3757   -0.9722   -2.7106 H   0  0  0  0  0  0  0  0  0  0  0  0
    3.6317   -0.7233   -2.4778 H   0  0  0  0  0  0  0  0  0  0  0  0
    4.3013   -0.6741   -4.8846 H   0  0  0  0  0  0  0  0  0  0  0  0
    5.0679   -2.2834   -4.7232 H   0  0  0  0  0  0  0  0  0  0  0  0
    2.0666   -1.7255   -4.4052 H   0  0  0  0  0  0  0  0  0  0  0  0
    2.8646   -3.3223   -4.2742 H   0  0  0  0  0  0  0  0  0  0  0  0
    3.0299   -1.4781   -6.7221 H   0  0  0  0  0  0  0  0  0  0  0  0
    3.7584   -3.0807   -6.5946 H   0  0  0  0  0  0  0  0  0  0  0  0
    1.7705   -3.1886   -7.8626 H   0  0  0  0  0  0  0  0  0  0  0  0
    1.4997   -4.1323   -6.3903 H   0  0  0  0  0  0  0  0  0  0  0  0
    0.5558   -1.2668   -6.9629 H   0  0  0  0  0  0  0  0  0  0  0  0
    0.3291   -2.1147   -5.3634 H   0  0  0  0  0  0  0  0  0  0  0  0
   -1.6740   -2.3873   -6.5896 H   0  0  0  0  0  0  0  0  0  0  0  0
   -0.8235   -3.9948   -6.8465 H   0  0  0  0  0  0  0  0  0  0  0  0
   -0.7433   -2.7404   -8.1362 H   0  0  0  0  0  0  0  0  0  0  0  0
   -6.5278   -0.1522    5.3216 H   0  0  0  0  0  0  0  0  0  0  0  0
   -3.0327   -4.9106    1.6055 H   0  0  0  0  0  0  0  0  0  0  0  0
    1.3581    0.9044    4.9608 H   0  0  0  0  0  0  0  0  0  0  0  0
   -0.6178    2.6331    2.5739 H   0  0  0  0  0  0  0  0  0  0  0  0
    0.8452    0.8996    1.7268 H   0  0  0  0  0  0  0  0  0  0  0  0
  1  2  1  0
  1 52  1  0
  2  3  1  0
  2 46  1  0
  3 47  1  0
  4  5  1  0
  4 53  1  0
 45  5  1  6
  6 45  1  0
  7 45  1  0
  8 45  1  0
  9 10  1  0
  9 47  1  0
  9 48  1  0
 10 11  1  0
 11 12  1  0
 12 13  1  0
 13 14  1  0
 14 15  1  0
 15 16  1  0
 16 17  1  0
 17 18  1  0
 18 19  1  0
 19 20  1  0
 20 21  1  0
 21 22  1  0
 22 23  1  0
 23 24  1  0
 24 25  1  0
 25 26  1  0
 27 28  1  0
 27 46  1  0
 27 49  1  0
 28 29  1  0
 29 30  1  0
 30 31  1  0
 31 32  1  0
 32 33  1  0
 33 34  1  0
 34 35  1  0
 35 36  1  0
 36 37  1  0
 37 38  1  0
 38 39  1  0
 39 40  1  0
 40 41  1  0
 41 42  1  0
 42 43  1  0
 43 44  1  0
 50 54  1  0
 51 54  1  0
 52 54  1  0
 53 54  1  0
  1 55  1  0
  1 56  1  0
  2 57  1  1
  3 58  1  0
  3 59  1  0
  4 60  1  0
  4 61  1  0
  5 62  1  0
  5 63  1  0
  6 64  1  0
  6 65  1  0
  6 66  1  0
  7 67  1  0
  7 68  1  0
  7 69  1  0
  8 70  1  0
  8 71  1  0
  8 72  1  0
  9 73  1  0
 10 74  1  0
 10 75  1  0
 11 76  1  0
 11 77  1  0
 12 78  1  0
 12 79  1  0
 13 80  1  0
 13 81  1  0
 14 82  1  0
 14 83  1  0
 15 84  1  0
 15 85  1  0
 16 86  1  0
 16 87  1  0
 17 88  1  0
 17 89  1  0
 18 90  1  0
 18 91  1  0
 19 92  1  0
 19 93  1  0
 20 94  1  0
 20 95  1  0
 21 96  1  0
 21 97  1  0
 22 98  1  0
 22 99  1  0
 23100  1  0
 23101  1  0
 24102  1  0
 24103  1  0
 25104  1  0
 25105  1  0
 26106  1  0
 26107  1  0
 26108  1  0
 27109  1  1
 28110  1  0
 28111  1  0
 29112  1  0
 29113  1  0
 30114  1  0
 30115  1  0
 31116  1  0
 31117  1  0
 32118  1  0
 32119  1  0
 33120  1  0
 33121  1  0
 34122  1  0
 34123  1  0
 35124  1  0
 35125  1  0
 36126  1  0
 36127  1  0
 37128  1  0
 37129  1  0
 38130  1  0
 38131  1  0
 39132  1  0
 39133  1  0
 40134  1  0
 40135  1  0
 41136  1  0
 41137  1  0
 42138  1  0
 42139  1  0
 43140  1  0
 43141  1  0
 44142  1  0
 44143  1  0
 44144  1  0
 48145  1  0
 49146  1  0
 50147  1  0
 51148  1  0
 54149  1  0
M  CHG  1  45   1
M  END
$$$$
PHOSPHATIDYLCHOLINE TRANSFER PROTEIN
     RDKit          3D

149148  0  0  0  0  0  0  0  0999 V2000
    3.9159   -3.3127    2.5445 C   0  0  0  0  0  0  0  0  0  0  0  0
    3.3078   -4.7334    2.8184 C   0  0  1  0  0  0  0  0  0  0  0  0
    2.1890   -4.5784    3.7561 C   0  0  0  0  0  0  0  0  0  0  0  0
    1.1594   -1.9181    0.2190 C   0  0  0  0  0  0  0  0  0  0  0  0
    0.6502   -2.6524   -0.9641 C   0  0  0  0  0  0  0  0  0  0  0  0
   -1.6096   -2.6424   -0.0445 C   0  0  0  0  0  0  0  0  0  0  0  0
   -0.3800   -4.6028   -0.0701 C   0  0  0  0  0  0  0  0  0  0  0  0
   -1.1290   -3.7064   -2.0731 C   0  0  0  0  0  0  0  0  0  0  0  0
    0.1739   -3.6089    4.4276 C   0  0  0  0  0  0  0  0  0  0  0  0
   -1.0432   -3.0472    3.8387 C   0  0  0  0  0  0  0  0  0  0  0  0
   -0.9900   -1.5820    3.4527 C   0  0  0  0  0  0  0  0  0  0  0  0
   -0.8804   -0.6156    4.5761 C   0  0  0  0  0  0  0  0  0  0  0  0
   -0.7552    0.8185    4.0548 C   0  0  0  0  0  0  0  0  0  0  0  0
    0.5388    1.0159    3.3072 C   0  0  0  0  0  0  0  0  0  0  0  0
    0.7644    2.3894    2.7749 C   0  0  0  0  0  0  0  0  0  0  0  0
   -0.2150    2.8620    1.7509 C   0  0  0  0  0  0  0  0  0  0  0  0
    0.1004    4.2689    1.2722 C   0  0  0  0  0  0  0  0  0  0  0  0
   -0.8788    4.7033    0.1977 C   0  0  0  0  0  0  0  0  0  0  0  0
   -0.5410    6.1127   -0.2811 C   0  0  0  0  0  0  0  0  0  0  0  0
   -1.4475    6.5700   -1.3665 C   0  0  0  0  0  0  0  0  0  0  0  0
   -2.8965    6.6337   -1.0399 C   0  0  0  0  0  0  0  0  0  0  0  0
   -3.2428    7.5779    0.0942 C   0  0  0  0  0  0  0  0  0  0  0  0
   -4.7438    7.5039    0.2610 C   0  0  0  0  0  0  0  0  0  0  0  0
   -5.2234    8.4211    1.3527 C   0  0  0  0  0  0  0  0  0  0  0  0
   -4.5937    8.0558    2.6696 C   0  0  0  0  0  0  0  0  0  0  0  0
   -5.0961    8.9800    3.7859 C   0  0  0  0  0  0  0  0  0  0  0  0
    3.9895   -6.2634    1.2542 C   0  0  1  0  0  0  0  0  0  0  0  0
    4.6617   -6.1177   -0.0642 C   0  0  0  0  0  0  0  0  0  0  0  0
    3.7013   -6.2048   -1.2617 C   0  0  0  0  0  0  0  0  0  0  0  0
    4.5540   -6.0152   -2.4962 C   0  0  0  0  0  0  0  0  0  0  0  0
    3.8963   -6.1661   -3.7989 C   0  0  0  0  0  0  0  0  0  0  0  0
    2.7645   -5.3366   -4.2009 C   0  0  0  0  0  0  0  0  0  0  0  0
    2.9390   -3.8513   -4.2615 C   0  0  0  0  0  0  0  0  0  0  0  0
    1.6123   -3.3074   -4.8158 C   0  0  0  0  0  0  0  0  0  0  0  0
    1.5719   -1.8268   -4.9475 C   0  0  0  0  0  0  0  0  0  0  0  0
    0.2211   -1.4658   -5.5850 C   0  0  0  0  0  0  0  0  0  0  0  0
    0.0353   -0.0057   -5.7972 C   0  0  0  0  0  0  0  0  0  0  0  0
    0.0059    0.8211   -4.5549 C   0  0  0  0  0  0  0  0  0  0  0  0
   -1.1998    0.4033   -3.6684 C   0  0  0  0  0  0  0  0  0  0  0  0
   -1.1815    1.2876   -2.4722 C   0  0  0  0  0  0  0  0  0  0  0  0
   -2.1547    1.1004   -1.3947 C   0  0  0  0  0  0  0  0  0  0  0  0
   -3.6084    1.1667   -1.6046 C   0  0  0  0  0  0  0  0  0  0  0  0
   -4.2230    0.1024   -2.4518 C   0  0  0  0  0  0  0  0  0  0  0  0
   -5.7390    0.3297   -2.5586 C   0  0  0  0  0  0  0  0  0  0  0  0
   -0.5945   -3.3153   -0.7708 N   0  0  2  0  0  0  0  0  0  0  0  0
    3.0524   -5.2649    1.5461 O   0  0  0  0  0  0  0  0  0  0  0  0
    1.2863   -3.5767    3.5776 O   0  0  0  0  0  0  0  0  0  0  0  0
    0.5452   -2.7478    5.5400 O   0  0  0  0  0  0  0  0  0  0  0  0
    3.3368   -7.5249    1.2139 O   0  0  0  0  0  0  0  0  0  0  0  0
    4.4862   -1.1894    0.1363 O   0  0  0  0  0  0  0  0  0  0  0  0
    3.9777   -0.1237    2.4911 O   0  0  0  0  0  0  0  0  0  0  0  0
    3.0801   -2.6637    1.6405 O   0  0  0  0  0  0  0  0  0  0  0  0
    2.4043   -1.3421   -0.1264 O   0  0  0  0  0  0  0  0  0  0  0  0
    3.2875   -1.0788    1.3106 P   0  0  0  0  0  0  0  0  0  0  0  0
    4.8709   -3.5121    2.0450 H   0  0  0  0  0  0  0  0  0  0  0  0
    4.0868   -2.8033    3.4876 H   0  0  0  0  0  0  0  0  0  0  0  0
    4.1228   -5.3318    3.2622 H   0  0  0  0  0  0  0  0  0  0  0  0
    2.6083   -4.4589    4.8062 H   0  0  0  0  0  0  0  0  0  0  0  0
    1.6636   -5.5811    3.8095 H   0  0  0  0  0  0  0  0  0  0  0  0
    1.2263   -2.4921    1.1357 H   0  0  0  0  0  0  0  0  0  0  0  0
    0.5320   -1.0044    0.4466 H   0  0  0  0  0  0  0  0  0  0  0  0
    0.5566   -1.8990   -1.7996 H   0  0  0  0  0  0  0  0  0  0  0  0
    1.3634   -3.4052   -1.3606 H   0  0  0  0  0  0  0  0  0  0  0  0
   -2.3743   -2.2715   -0.7931 H   0  0  0  0  0  0  0  0  0  0  0  0
   -2.2333   -3.3475    0.5867 H   0  0  0  0  0  0  0  0  0  0  0  0
   -1.3255   -1.7483    0.5142 H   0  0  0  0  0  0  0  0  0  0  0  0
   -0.3405   -4.4842    1.0178 H   0  0  0  0  0  0  0  0  0  0  0  0
   -1.1418   -5.3338   -0.3272 H   0  0  0  0  0  0  0  0  0  0  0  0
    0.6058   -4.9938   -0.3947 H   0  0  0  0  0  0  0  0  0  0  0  0
   -1.0470   -2.9449   -2.8426 H   0  0  0  0  0  0  0  0  0  0  0  0
   -0.4961   -4.5829   -2.3987 H   0  0  0  0  0  0  0  0  0  0  0  0
   -2.1476   -4.1262   -1.9693 H   0  0  0  0  0  0  0  0  0  0  0  0
    0.0555   -4.5516    4.9568 H   0  0  0  0  0  0  0  0  0  0  0  0
   -1.8688   -3.1358    4.6034 H   0  0  0  0  0  0  0  0  0  0  0  0
   -1.4194   -3.6179    2.9682 H   0  0  0  0  0  0  0  0  0  0  0  0
   -0.2785   -1.4278    2.6413 H   0  0  0  0  0  0  0  0  0  0  0  0
   -2.0038   -1.3878    2.9797 H   0  0  0  0  0  0  0  0  0  0  0  0
   -0.0535   -0.7316    5.2726 H   0  0  0  0  0  0  0  0  0  0  0  0
   -1.8283   -0.6567    5.1633 H   0  0  0  0  0  0  0  0  0  0  0  0
   -0.7128    1.4946    4.9387 H   0  0  0  0  0  0  0  0  0  0  0  0
   -1.6534    1.0754    3.4525 H   0  0  0  0  0  0  0  0  0  0  0  0
    1.3487    0.8196    4.0737 H   0  0  0  0  0  0  0  0  0  0  0  0
    0.7177    0.2542    2.5147 H   0  0  0  0  0  0  0  0  0  0  0  0
    0.7711    3.1245    3.6165 H   0  0  0  0  0  0  0  0  0  0  0  0
    1.7813    2.4343    2.3278 H   0  0  0  0  0  0  0  0  0  0  0  0
   -0.0687    2.2156    0.8564 H   0  0  0  0  0  0  0  0  0  0  0  0
   -1.2362    2.7966    2.1604 H   0  0  0  0  0  0  0  0  0  0  0  0
    1.1451    4.3055    0.9145 H   0  0  0  0  0  0  0  0  0  0  0  0
    0.0133    4.9778    2.1344 H   0  0  0  0  0  0  0  0  0  0  0  0
   -1.9039    4.6704    0.5849 H   0  0  0  0  0  0  0  0  0  0  0  0
   -0.8144    4.0020   -0.6630 H   0  0  0  0  0  0  0  0  0  0  0  0
    0.4923    6.0562   -0.6986 H   0  0  0  0  0  0  0  0  0  0  0  0
   -0.4613    6.7977    0.5848 H   0  0  0  0  0  0  0  0  0  0  0  0
   -1.2514    5.9259   -2.2644 H   0  0  0  0  0  0  0  0  0  0  0  0
   -1.1508    7.5989   -1.7207 H   0  0  0  0  0  0  0  0  0  0  0  0
   -3.5381    6.8854   -1.9044 H   0  0  0  0  0  0  0  0  0  0  0  0
   -3.2079    5.5902   -0.7422 H   0  0  0  0  0  0  0  0  0  0  0  0
   -2.7834    7.2240    1.0445 H   0  0  0  0  0  0  0  0  0  0  0  0
   -2.9750    8.6040   -0.1895 H   0  0  0  0  0  0  0  0  0  0  0  0
   -5.0370    6.4452    0.4617 H   0  0  0  0  0  0  0  0  0  0  0  0
   -5.2198    7.7610   -0.7246 H   0  0  0  0  0  0  0  0  0  0  0  0
   -4.9619    9.4919    1.1271 H   0  0  0  0  0  0  0  0  0  0  0  0
   -6.3330    8.3135    1.4193 H   0  0  0  0  0  0  0  0  0  0  0  0
   -4.8935    7.0381    2.9421 H   0  0  0  0  0  0  0  0  0  0  0  0
   -3.4924    8.2119    2.6359 H   0  0  0  0  0  0  0  0  0  0  0  0
   -4.5727    9.9381    3.6844 H   0  0  0  0  0  0  0  0  0  0  0  0
   -6.2115    9.1079    3.6611 H   0  0  0  0  0  0  0  0  0  0  0  0
   -4.9110    8.4654    4.7334 H   0  0  0  0  0  0  0  0  0  0  0  0
    4.6993   -6.3430    2.0850 H   0  0  0  0  0  0  0  0  0  0  0  0
    5.4082   -6.9179   -0.2226 H   0  0  0  0  0  0  0  0  0  0  0  0
    5.2164   -5.1642   -0.1843 H   0  0  0  0  0  0  0  0  0  0  0  0
    2.9525   -5.3896   -1.2062 H   0  0  0  0  0  0  0  0  0  0  0  0
    3.2644   -7.2220   -1.3135 H   0  0  0  0  0  0  0  0  0  0  0  0
    5.4447   -6.7118   -2.4040 H   0  0  0  0  0  0  0  0  0  0  0  0
    5.0307   -5.0041   -2.3525 H   0  0  0  0  0  0  0  0  0  0  0  0
    4.6961   -6.0563   -4.6064 H   0  0  0  0  0  0  0  0  0  0  0  0
    3.5698   -7.2534   -3.9753 H   0  0  0  0  0  0  0  0  0  0  0  0
    1.8567   -5.6344   -3.6227 H   0  0  0  0  0  0  0  0  0  0  0  0
    2.4901   -5.6388   -5.2636 H   0  0  0  0  0  0  0  0  0  0  0  0
    3.0662   -3.3575   -3.2844 H   0  0  0  0  0  0  0  0  0  0  0  0
    3.7532   -3.6281   -4.9770 H   0  0  0  0  0  0  0  0  0  0  0  0
    1.4896   -3.7298   -5.8431 H   0  0  0  0  0  0  0  0  0  0  0  0
    0.7594   -3.6938   -4.2334 H   0  0  0  0  0  0  0  0  0  0  0  0
    2.3358   -1.4602   -5.6741 H   0  0  0  0  0  0  0  0  0  0  0  0
    1.7518   -1.2663   -4.0148 H   0  0  0  0  0  0  0  0  0  0  0  0
    0.2090   -2.0083   -6.5676 H   0  0  0  0  0  0  0  0  0  0  0  0
   -0.6000   -1.9252   -4.9964 H   0  0  0  0  0  0  0  0  0  0  0  0
   -0.8184    0.2092   -6.4817 H   0  0  0  0  0  0  0  0  0  0  0  0
    0.9369    0.3509   -6.3818 H   0  0  0  0  0  0  0  0  0  0  0  0
    0.8936    0.5775   -3.9497 H   0  0  0  0  0  0  0  0  0  0  0  0
   -0.0738    1.8991   -4.7357 H   0  0  0  0  0  0  0  0  0  0  0  0
   -2.0530    0.7407   -4.3194 H   0  0  0  0  0  0  0  0  0  0  0  0
   -1.1523   -0.6588   -3.5071 H   0  0  0  0  0  0  0  0  0  0  0  0
   -0.1361    1.2831   -1.9884 H   0  0  0  0  0  0  0  0  0  0  0  0
   -1.2548    2.3842   -2.7841 H   0  0  0  0  0  0  0  0  0  0  0  0
   -1.9530    0.0708   -0.9513 H   0  0  0  0  0  0  0  0  0  0  0  0
   -1.9204    1.8302   -0.5346 H   0  0  0  0  0  0  0  0  0  0  0  0
   -3.9634    2.1943   -1.9055 H   0  0  0  0  0  0  0  0  0  0  0  0
   -4.1100    1.0501   -0.5806 H   0  0  0  0  0  0  0  0  0  0  0  0
   -4.1628   -0.8754   -1.8635 H   0  0  0  0  0  0  0  0  0  0  0  0
   -3.8050   -0.1207   -3.4126 H   0  0  0  0  0  0  0  0  0  0  0  0
   -6.2399   -0.6465   -2.7132 H   0  0  0  0  0  0  0  0  0  0  0  0
   -5.9620    0.9570   -3.4428 H   0  0  0  0  0  0  0  0  0  0  0  0
   -6.1421    0.7942   -1.6350 H   0  0  0  0  0  0  0  0  0  0  0  0
    1.3272   -3.1859    6.0018 H   0  0  0  0  0  0  0  0  0  0  0  0
    2.4115   -7.4272    0.8969 H   0  0  0  0  0  0  0  0  0  0  0  0
    4.8717   -0.2828   -0.0934 H   0  0  0  0  0  0  0  0  0  0  0  0
    4.2652    0.6955    2.0583 H   0  0  0  0  0  0  0  0  0  0  0  0
    3.7396   -2.2573    0.7399 H   0  0  0  0  0  0  0  0  0  0  0  0
  1  2  1  0
  1 52  1  0
  2  3  1  0
  2 46  1  0
  3 47  1  0
  4  5  1  0
  4 53  1  0
 45  5  1  6
  6 45  1  0
  7 45  1  0
  8 45  1  0
  9 10  1  0
  9 47  1  0
  9 48  1  0
 10 11  1  0
 11 12  1  0
 12 13  1  0
 13 14  1  0
 14 15  1  0
 15 16  1  0
 16 17  1  0
 17 18  1  0
 18 19  1  0
 19 20  1  0
 20 21  1  0
 21 22  1  0
 22 23  1  0
 23 24  1  0
 24 25  1  0
 25 26  1  0
 27 28  1  0
 27 46  1  0
 27 49  1  0
 28 29  1  0
 29 30  1  0
 30 31  1  0
 31 32  1  0
 32 33  1  0
 33 34  1  0
 34 35  1  0
 35 36  1  0
 36 37  1  0
 37 38  1  0
 38 39  1  0
 39 40  1  0
 40 41  1  0
 41 42  1  0
 42 43  1  0
 43 44  1  0
 50 54  1  0
 51 54  1  0
 52 54  1  0
 53 54  1  0
  1 55  1  0
  1 56  1  0
  2 57  1  1
  3 58  1  0
  3 59  1  0
  4 60  1  0
  4 61  1  0
  5 62  1  0
  5 63  1  0
  6 64  1  0
  6 65  1  0
  6 66  1  0
  7 67  1  0
  7 68  1  0
  7 69  1  0
  8 70  1  0
  8 71  1  0
  8 72  1  0
  9 73  1  0
 10 74  1  0
 10 75  1  0
 11 76  1  0
 11 77  1  0
 12 78  1  0
 12 79  1  0
 13 80  1  0
 13 81  1  0
 14 82  1  0
 14 83  1  0
 15 84  1  0
 15 85  1  0
 16 86  1  0
 16 87  1  0
 17 88  1  0
 17 89  1  0
 18 90  1  0
 18 91  1  0
 19 92  1  0
 19 93  1  0
 20 94  1  0
 20 95  1  0
 21 96  1  0
 21 97  1  0
 22 98  1  0
 22 99  1  0
 23100  1  0
 23101  1  0
 24102  1  0
 24103  1  0
 25104  1  0
 25105  1  0
 26106  1  0
 26107  1  0
 26108  1  0
 27109  1  1
 28110  1  0
 28111  1  0
 29112  1  0
 29113  1  0
 30114  1  0
 30115  1  0
 31116  1  0
 31117  1  0
 32118  1  0
 32119  1  0
 33120  1  0
 33121  1  0
 34122  1  0
 34123  1  0
 35124  1  0
 35125  1  0
 36126  1  0
 36127  1  0
 37128  1  0
 37129  1  0
 38130  1  0
 38131  1  0
 39132  1  0
 39133  1  0
 40134  1  0
 40135  1  0
 41136  1  0
 41137  1  0
 42138  1  0
 42139  1  0
 43140  1  0
 43141  1  0
 44142  1  0
 44143  1  0
 44144  1  0
 48145  1  0
 49146  1  0
 50147  1  0
 51148  1  0
 54149  1  0
M  CHG  1  45   1
M  END
$$$$
PHOSPHATIDYLCHOLINE TRANSFER PROTEIN
     RDKit          3D

149148  0  0  0  0  0  0  0  0999 V2000
   -1.9867    1.8195   -0.8965 C   0  0  0  0  0  0  0  0  0  0  0  0
   -2.1216    2.6863    0.3140 C   0  0  1  0  0  0  0  0  0  0  0  0
   -2.7935    1.8426    1.4161 C   0  0  0  0  0  0  0  0  0  0  0  0
   -4.5093   -1.5031   -3.5815 C   0  0  0  0  0  0  0  0  0  0  0  0
   -4.7433   -2.9949   -3.5672 C   0  0  0  0  0  0  0  0  0  0  0  0
   -4.2332   -4.9131   -4.7888 C   0  0  0  0  0  0  0  0  0  0  0  0
   -2.8095   -4.3423   -3.0193 C   0  0  0  0  0  0  0  0  0  0  0  0
   -2.7990   -3.0905   -4.9818 C   0  0  0  0  0  0  0  0  0  0  0  0
   -4.5285    0.4800    2.0495 C   0  0  0  0  0  0  0  0  0  0  0  0
   -4.5439   -0.9917    1.5564 C   0  0  0  0  0  0  0  0  0  0  0  0
   -3.1060   -1.3904    1.2419 C   0  0  0  0  0  0  0  0  0  0  0  0
   -2.9414   -2.7702    0.7357 C   0  0  0  0  0  0  0  0  0  0  0  0
   -3.3669   -3.8707    1.6723 C   0  0  0  0  0  0  0  0  0  0  0  0
   -2.5733   -3.8046    2.9651 C   0  0  0  0  0  0  0  0  0  0  0  0
   -1.0858   -3.8882    2.6967 C   0  0  0  0  0  0  0  0  0  0  0  0
   -0.4106   -3.8481    4.1011 C   0  0  0  0  0  0  0  0  0  0  0  0
    1.0420   -3.8733    3.8548 C   0  0  0  0  0  0  0  0  0  0  0  0
    2.0172   -3.9518    4.9393 C   0  0  0  0  0  0  0  0  0  0  0  0
    2.0783   -2.9791    6.0391 C   0  0  0  0  0  0  0  0  0  0  0  0
    0.9033   -3.0217    6.9329 C   0  0  0  0  0  0  0  0  0  0  0  0
    0.9376   -2.0458    8.0934 C   0  0  0  0  0  0  0  0  0  0  0  0
    0.9969   -0.6064    7.7012 C   0  0  0  0  0  0  0  0  0  0  0  0
   -0.1914   -0.1909    6.8647 C   0  0  0  0  0  0  0  0  0  0  0  0
   -0.1891    1.2608    6.4643 C   0  0  0  0  0  0  0  0  0  0  0  0
    1.0298    1.6002    5.6453 C   0  0  0  0  0  0  0  0  0  0  0  0
    1.0193    3.0717    5.2386 C   0  0  0  0  0  0  0  0  0  0  0  0
   -0.7250    4.4669    0.9679 C   0  0  1  0  0  0  0  0  0  0  0  0
    0.6406    4.9785    0.5163 C   0  0  0  0  0  0  0  0  0  0  0  0
    1.7119    4.2221    1.2950 C   0  0  0  0  0  0  0  0  0  0  0  0
    3.0729    4.7356    0.9893 C   0  0  0  0  0  0  0  0  0  0  0  0
    4.1327    3.9218    1.7355 C   0  0  0  0  0  0  0  0  0  0  0  0
    4.1877    2.4896    1.2350 C   0  0  0  0  0  0  0  0  0  0  0  0
    4.7036    2.4215   -0.1682 C   0  0  0  0  0  0  0  0  0  0  0  0
    4.6580    0.9963   -0.6598 C   0  0  0  0  0  0  0  0  0  0  0  0
    5.2967    0.8149   -1.9870 C   0  0  0  0  0  0  0  0  0  0  0  0
    4.8154    1.6552   -3.1148 C   0  0  0  0  0  0  0  0  0  0  0  0
    5.6321    1.2841   -4.3347 C   0  0  0  0  0  0  0  0  0  0  0  0
    5.3502    2.0948   -5.5467 C   0  0  0  0  0  0  0  0  0  0  0  0
    3.9690    2.1082   -6.0815 C   0  0  0  0  0  0  0  0  0  0  0  0
    3.4133    0.7654   -6.4767 C   0  0  0  0  0  0  0  0  0  0  0  0
    2.0239    0.9380   -7.0988 C   0  0  0  0  0  0  0  0  0  0  0  0
    1.0392    1.5750   -6.1914 C   0  0  0  0  0  0  0  0  0  0  0  0
    0.7706    0.8200   -4.9308 C   0  0  0  0  0  0  0  0  0  0  0  0
    0.1782   -0.5502   -5.1566 C   0  0  0  0  0  0  0  0  0  0  0  0
   -3.6659   -3.7835   -4.0522 N   0  0  2  0  0  0  0  0  0  0  0  0
   -0.9345    3.1458    0.7919 O   0  0  0  0  0  0  0  0  0  0  0  0
   -3.9891    1.2722    1.0104 O   0  0  0  0  0  0  0  0  0  0  0  0
   -5.8265    0.8625    2.2753 O   0  0  0  0  0  0  0  0  0  0  0  0
   -0.7582    4.7704    2.3907 O   0  0  0  0  0  0  0  0  0  0  0  0
   -1.7691   -0.2320   -2.5237 O   0  0  0  0  0  0  0  0  0  0  0  0
   -3.1613    0.9850   -4.4706 O   0  0  0  0  0  0  0  0  0  0  0  0
   -3.2268    1.3540   -1.3307 O   0  0  0  0  0  0  0  0  0  0  0  0
   -3.4252   -1.1158   -2.8071 O   0  0  0  0  0  0  0  0  0  0  0  0
   -3.1983    0.5835   -2.8170 P   0  0  0  0  0  0  0  0  0  0  0  0
   -1.4759    2.3288   -1.7370 H   0  0  0  0  0  0  0  0  0  0  0  0
   -1.3837    0.9441   -0.5957 H   0  0  0  0  0  0  0  0  0  0  0  0
   -2.8148    3.5565    0.1147 H   0  0  0  0  0  0  0  0  0  0  0  0
   -2.0738    1.1314    1.8623 H   0  0  0  0  0  0  0  0  0  0  0  0
   -2.9993    2.5812    2.2551 H   0  0  0  0  0  0  0  0  0  0  0  0
   -4.3882   -1.1053   -4.6068 H   0  0  0  0  0  0  0  0  0  0  0  0
   -5.4119   -1.0135   -3.1717 H   0  0  0  0  0  0  0  0  0  0  0  0
   -5.7182   -3.2169   -4.0581 H   0  0  0  0  0  0  0  0  0  0  0  0
   -4.8976   -3.2608   -2.4792 H   0  0  0  0  0  0  0  0  0  0  0  0
   -3.4890   -5.3635   -5.4598 H   0  0  0  0  0  0  0  0  0  0  0  0
   -5.0453   -4.4998   -5.4381 H   0  0  0  0  0  0  0  0  0  0  0  0
   -4.6341   -5.6695   -4.0846 H   0  0  0  0  0  0  0  0  0  0  0  0
   -1.9931   -4.9145   -3.5250 H   0  0  0  0  0  0  0  0  0  0  0  0
   -3.3556   -5.0731   -2.3890 H   0  0  0  0  0  0  0  0  0  0  0  0
   -2.3867   -3.5525   -2.3608 H   0  0  0  0  0  0  0  0  0  0  0  0
   -1.9830   -2.5387   -4.4451 H   0  0  0  0  0  0  0  0  0  0  0  0
   -3.3510   -2.4684   -5.6988 H   0  0  0  0  0  0  0  0  0  0  0  0
   -2.2995   -3.8743   -5.5846 H   0  0  0  0  0  0  0  0  0  0  0  0
   -3.8755    0.5526    2.9377 H   0  0  0  0  0  0  0  0  0  0  0  0
   -5.1090   -1.0045    0.6199 H   0  0  0  0  0  0  0  0  0  0  0  0
   -5.0246   -1.6484    2.2920 H   0  0  0  0  0  0  0  0  0  0  0  0
   -2.7633   -0.6799    0.4728 H   0  0  0  0  0  0  0  0  0  0  0  0
   -2.5037   -1.1885    2.1645 H   0  0  0  0  0  0  0  0  0  0  0  0
   -1.8772   -2.9930    0.4339 H   0  0  0  0  0  0  0  0  0  0  0  0
   -3.6130   -2.8733   -0.1606 H   0  0  0  0  0  0  0  0  0  0  0  0
   -3.3711   -4.8538    1.2036 H   0  0  0  0  0  0  0  0  0  0  0  0
   -4.4280   -3.6337    1.9793 H   0  0  0  0  0  0  0  0  0  0  0  0
   -2.7769   -2.8644    3.4841 H   0  0  0  0  0  0  0  0  0  0  0  0
   -2.8344   -4.6429    3.6124 H   0  0  0  0  0  0  0  0  0  0  0  0
   -0.8407   -4.8294    2.2055 H   0  0  0  0  0  0  0  0  0  0  0  0
   -0.7113   -2.9755    2.1603 H   0  0  0  0  0  0  0  0  0  0  0  0
   -0.6884   -2.8112    4.4237 H   0  0  0  0  0  0  0  0  0  0  0  0
   -0.8548   -4.6567    4.6653 H   0  0  0  0  0  0  0  0  0  0  0  0
    1.2222   -4.7929    3.1923 H   0  0  0  0  0  0  0  0  0  0  0  0
    1.2529   -3.0220    3.1324 H   0  0  0  0  0  0  0  0  0  0  0  0
    3.0465   -4.0294    4.4207 H   0  0  0  0  0  0  0  0  0  0  0  0
    1.9622   -5.0244    5.3700 H   0  0  0  0  0  0  0  0  0  0  0  0
    2.9782   -3.2714    6.6751 H   0  0  0  0  0  0  0  0  0  0  0  0
    2.3501   -1.9450    5.7082 H   0  0  0  0  0  0  0  0  0  0  0  0
    0.9643   -4.0409    7.4598 H   0  0  0  0  0  0  0  0  0  0  0  0
   -0.0850   -3.0084    6.5090 H   0  0  0  0  0  0  0  0  0  0  0  0
   -0.0637   -2.1854    8.6032 H   0  0  0  0  0  0  0  0  0  0  0  0
    1.6746   -2.2857    8.8618 H   0  0  0  0  0  0  0  0  0  0  0  0
    0.8760   -0.0276    8.6670 H   0  0  0  0  0  0  0  0  0  0  0  0
    1.9538   -0.2849    7.2968 H   0  0  0  0  0  0  0  0  0  0  0  0
   -0.2074   -0.7586    5.8880 H   0  0  0  0  0  0  0  0  0  0  0  0
   -1.1526   -0.4635    7.3523 H   0  0  0  0  0  0  0  0  0  0  0  0
   -0.1279    1.9089    7.3747 H   0  0  0  0  0  0  0  0  0  0  0  0
   -1.0775    1.5022    5.8538 H   0  0  0  0  0  0  0  0  0  0  0  0
    1.0476    1.0064    4.6851 H   0  0  0  0  0  0  0  0  0  0  0  0
    1.9947    1.3779    6.1652 H   0  0  0  0  0  0  0  0  0  0  0  0
    0.6256    3.2186    4.2095 H   0  0  0  0  0  0  0  0  0  0  0  0
    0.3982    3.6778    5.9317 H   0  0  0  0  0  0  0  0  0  0  0  0
    2.0567    3.4794    5.2651 H   0  0  0  0  0  0  0  0  0  0  0  0
   -1.5265    5.0786    0.5851 H   0  0  0  0  0  0  0  0  0  0  0  0
    0.7208    6.0420    0.8108 H   0  0  0  0  0  0  0  0  0  0  0  0
    0.7655    4.8442   -0.5710 H   0  0  0  0  0  0  0  0  0  0  0  0
    1.5180    4.4994    2.3838 H   0  0  0  0  0  0  0  0  0  0  0  0
    1.5614    3.1465    1.2542 H   0  0  0  0  0  0  0  0  0  0  0  0
    3.3505    4.7498   -0.0711 H   0  0  0  0  0  0  0  0  0  0  0  0
    3.2203    5.7867    1.3718 H   0  0  0  0  0  0  0  0  0  0  0  0
    5.0725    4.4776    1.5840 H   0  0  0  0  0  0  0  0  0  0  0  0
    3.8606    3.8927    2.8079 H   0  0  0  0  0  0  0  0  0  0  0  0
    3.2028    2.0478    1.3047 H   0  0  0  0  0  0  0  0  0  0  0  0
    4.8689    1.9089    1.8851 H   0  0  0  0  0  0  0  0  0  0  0  0
    4.1686    3.1173   -0.8088 H   0  0  0  0  0  0  0  0  0  0  0  0
    5.7832    2.7607   -0.1396 H   0  0  0  0  0  0  0  0  0  0  0  0
    5.1334    0.3554    0.1085 H   0  0  0  0  0  0  0  0  0  0  0  0
    3.5665    0.6970   -0.6682 H   0  0  0  0  0  0  0  0  0  0  0  0
    6.4076    0.9115   -1.8833 H   0  0  0  0  0  0  0  0  0  0  0  0
    5.0959   -0.2626   -2.2844 H   0  0  0  0  0  0  0  0  0  0  0  0
    4.9595    2.7465   -2.9505 H   0  0  0  0  0  0  0  0  0  0  0  0
    3.7713    1.4239   -3.3599 H   0  0  0  0  0  0  0  0  0  0  0  0
    5.5053    0.1935   -4.5831 H   0  0  0  0  0  0  0  0  0  0  0  0
    6.7003    1.4732   -4.0615 H   0  0  0  0  0  0  0  0  0  0  0  0
    5.7378    3.1502   -5.3895 H   0  0  0  0  0  0  0  0  0  0  0  0
    6.0212    1.6919   -6.3724 H   0  0  0  0  0  0  0  0  0  0  0  0
    3.2689    2.6578   -5.4012 H   0  0  0  0  0  0  0  0  0  0  0  0
    3.9611    2.7222   -7.0303 H   0  0  0  0  0  0  0  0  0  0  0  0
    4.0350    0.2545   -7.2295 H   0  0  0  0  0  0  0  0  0  0  0  0
    3.3135    0.0931   -5.5939 H   0  0  0  0  0  0  0  0  0  0  0  0
    1.6726   -0.0578   -7.4209 H   0  0  0  0  0  0  0  0  0  0  0  0
    2.1674    1.5314   -8.0384 H   0  0  0  0  0  0  0  0  0  0  0  0
    0.0697    1.6507   -6.7675 H   0  0  0  0  0  0  0  0  0  0  0  0
    1.3772    2.5996   -5.9127 H   0  0  0  0  0  0  0  0  0  0  0  0
    1.7010    0.7354   -4.3194 H   0  0  0  0  0  0  0  0  0  0  0  0
    0.0799    1.4435   -4.3196 H   0  0  0  0  0  0  0  0  0  0  0  0
    0.4184   -0.9594   -6.1462 H   0  0  0  0  0  0  0  0  0  0  0  0
    0.4581   -1.2868   -4.3734 H   0  0  0  0  0  0  0  0  0  0  0  0
   -0.9515   -0.4979   -5.1351 H   0  0  0  0  0  0  0  0  0  0  0  0
   -6.1406    1.6470    1.7889 H   0  0  0  0  0  0  0  0  0  0  0  0
   -0.4632    5.7164    2.3993 H   0  0  0  0  0  0  0  0  0  0  0  0
   -0.9973    0.4246   -2.5129 H   0  0  0  0  0  0  0  0  0  0  0  0
   -4.1124    0.9037   -4.7567 H   0  0  0  0  0  0  0  0  0  0  0  0
   -3.0760   -0.4008   -1.8557 H   0  0  0  0  0  0  0  0  0  0  0  0
  1  2  1  0
  1 52  1  0
  2  3  1  0
  2 46  1  0
  3 47  1  0
  4  5  1  0
  4 53  1  0
 45  5  1  1
  6 45  1  0
  7 45  1  0
  8 45  1  0
  9 10  1  0
  9 47  1  0
  9 48  1  0
 10 11  1  0
 11 12  1  0
 12 13  1  0
 13 14  1  0
 14 15  1  0
 15 16  1  0
 16 17  1  0
 17 18  1  0
 18 19  1  0
 19 20  1  0
 20 21  1  0
 21 22  1  0
 22 23  1  0
 23 24  1  0
 24 25  1  0
 25 26  1  0
 27 28  1  0
 27 46  1  0
 27 49  1  0
 28 29  1  0
 29 30  1  0
 30 31  1  0
 31 32  1  0
 32 33  1  0
 33 34  1  0
 34 35  1  0
 35 36  1  0
 36 37  1  0
 37 38  1  0
 38 39  1  0
 39 40  1  0
 40 41  1  0
 41 42  1  0
 42 43  1  0
 43 44  1  0
 50 54  1  0
 51 54  1  0
 52 54  1  0
 53 54  1  0
  1 55  1  0
  1 56  1  0
  2 57  1  6
  3 58  1  0
  3 59  1  0
  4 60  1  0
  4 61  1  0
  5 62  1  0
  5 63  1  0
  6 64  1  0
  6 65  1  0
  6 66  1  0
  7 67  1  0
  7 68  1  0
  7 69  1  0
  8 70  1  0
  8 71  1  0
  8 72  1  0
  9 73  1  0
 10 74  1  0
 10 75  1  0
 11 76  1  0
 11 77  1  0
 12 78  1  0
 12 79  1  0
 13 80  1  0
 13 81  1  0
 14 82  1  0
 14 83  1  0
 15 84  1  0
 15 85  1  0
 16 86  1  0
 16 87  1  0
 17 88  1  0
 17 89  1  0
 18 90  1  0
 18 91  1  0
 19 92  1  0
 19 93  1  0
 20 94  1  0
 20 95  1  0
 21 96  1  0
 21 97  1  0
 22 98  1  0
 22 99  1  0
 23100  1  0
 23101  1  0
 24102  1  0
 24103  1  0
 25104  1  0
 25105  1  0
 26106  1  0
 26107  1  0
 26108  1  0
 27109  1  6
 28110  1  0
 28111  1  0
 29112  1  0
 29113  1  0
 30114  1  0
 30115  1  0
 31116  1  0
 31117  1  0
 32118  1  0
 32119  1  0
 33120  1  0
 33121  1  0
 34122  1  0
 34123  1  0
 35124  1  0
 35125  1  0
 36126  1  0
 36127  1  0
 37128  1  0
 37129  1  0
 38130  1  0
 38131  1  0
 39132  1  0
 39133  1  0
 40134  1  0
 40135  1  0
 41136  1  0
 41137  1  0
 42138  1  0
 42139  1  0
 43140  1  0
 43141  1  0
 44142  1  0
 44143  1  0
 44144  1  0
 48145  1  0
 49146  1  0
 50147  1  0
 51148  1  0
 54149  1  0
M  CHG  1  45   1
M  END
$$$$
PHOSPHATIDYLCHOLINE TRANSFER PROTEIN
     RDKit          3D

149148  0  0  0  0  0  0  0  0999 V2000
   -0.8812   -0.8067   -1.1225 C   0  0  0  0  0  0  0  0  0  0  0  0
   -0.0711   -2.0134   -1.4331 C   0  0  1  0  0  0  0  0  0  0  0  0
   -0.7872   -2.6238   -2.6918 C   0  0  0  0  0  0  0  0  0  0  0  0
   -1.5595    2.3911   -2.2223 C   0  0  0  0  0  0  0  0  0  0  0  0
   -2.2425    3.7473   -2.5041 C   0  0  0  0  0  0  0  0  0  0  0  0
   -0.3556    3.9032   -3.9741 C   0  0  0  0  0  0  0  0  0  0  0  0
   -1.6283    5.7943   -3.4616 C   0  0  0  0  0  0  0  0  0  0  0  0
   -2.5340    4.1348   -4.8758 C   0  0  0  0  0  0  0  0  0  0  0  0
   -0.9520   -4.3450   -4.1179 C   0  0  0  0  0  0  0  0  0  0  0  0
   -0.1815   -5.1369   -5.0748 C   0  0  0  0  0  0  0  0  0  0  0  0
    0.4119   -6.4269   -4.7340 C   0  0  0  0  0  0  0  0  0  0  0  0
    1.3876   -6.6519   -3.6873 C   0  0  0  0  0  0  0  0  0  0  0  0
    1.1789   -6.5789   -2.2417 C   0  0  0  0  0  0  0  0  0  0  0  0
    0.1670   -7.5890   -1.6720 C   0  0  0  0  0  0  0  0  0  0  0  0
    0.1850   -7.4691   -0.2004 C   0  0  0  0  0  0  0  0  0  0  0  0
   -0.2325   -6.3013    0.5566 C   0  0  0  0  0  0  0  0  0  0  0  0
   -1.6476   -5.8898    0.6609 C   0  0  0  0  0  0  0  0  0  0  0  0
   -2.4412   -5.5585   -0.5273 C   0  0  0  0  0  0  0  0  0  0  0  0
   -3.9012   -5.1653   -0.2144 C   0  0  0  0  0  0  0  0  0  0  0  0
   -3.9147   -3.9345    0.6422 C   0  0  0  0  0  0  0  0  0  0  0  0
   -5.3471   -3.5233    0.9694 C   0  0  0  0  0  0  0  0  0  0  0  0
   -5.3425   -2.2693    1.7914 C   0  0  0  0  0  0  0  0  0  0  0  0
   -6.7952   -1.9070    2.1188 C   0  0  0  0  0  0  0  0  0  0  0  0
   -6.8749   -0.6450    2.9211 C   0  0  0  0  0  0  0  0  0  0  0  0
   -6.1423   -0.6903    4.2287 C   0  0  0  0  0  0  0  0  0  0  0  0
   -6.6596   -1.7436    5.1562 C   0  0  0  0  0  0  0  0  0  0  0  0
    2.2104   -2.5924   -1.5137 C   0  0  1  0  0  0  0  0  0  0  0  0
    3.1847   -1.9956   -0.4792 C   0  0  0  0  0  0  0  0  0  0  0  0
    3.6944   -0.6632   -0.8938 C   0  0  0  0  0  0  0  0  0  0  0  0
    4.7449   -0.0930    0.0764 C   0  0  0  0  0  0  0  0  0  0  0  0
    5.0759    1.3315   -0.3207 C   0  0  0  0  0  0  0  0  0  0  0  0
    6.1956    1.9199    0.4952 C   0  0  0  0  0  0  0  0  0  0  0  0
    6.3922    3.4025    0.1581 C   0  0  0  0  0  0  0  0  0  0  0  0
    5.1817    4.1948    0.6491 C   0  0  0  0  0  0  0  0  0  0  0  0
    5.1827    5.6442    0.3124 C   0  0  0  0  0  0  0  0  0  0  0  0
    3.9887    6.3808    0.9266 C   0  0  0  0  0  0  0  0  0  0  0  0
    4.0523    6.3859    2.4109 C   0  0  0  0  0  0  0  0  0  0  0  0
    2.9017    7.0596    3.0842 C   0  0  0  0  0  0  0  0  0  0  0  0
    1.5544    6.4087    2.8409 C   0  0  0  0  0  0  0  0  0  0  0  0
    0.4665    7.1295    3.5995 C   0  0  0  0  0  0  0  0  0  0  0  0
   -0.9012    6.5485    3.4537 C   0  0  0  0  0  0  0  0  0  0  0  0
   -0.8881    5.1044    3.9732 C   0  0  0  0  0  0  0  0  0  0  0  0
   -2.2272    4.4421    3.9082 C   0  0  0  0  0  0  0  0  0  0  0  0
   -2.1543    3.0060    4.4353 C   0  0  0  0  0  0  0  0  0  0  0  0
   -1.7323    4.3443   -3.6955 N   0  0  2  0  0  0  0  0  0  0  0  0
    1.1869   -1.8085   -1.8019 O   0  0  0  0  0  0  0  0  0  0  0  0
   -0.3279   -3.8738   -2.9888 O   0  0  0  0  0  0  0  0  0  0  0  0
   -2.0362   -5.2230   -3.6729 O   0  0  0  0  0  0  0  0  0  0  0  0
    2.9503   -2.9497   -2.6128 O   0  0  0  0  0  0  0  0  0  0  0  0
    0.6206    1.7485    0.6276 O   0  0  0  0  0  0  0  0  0  0  0  0
   -1.2667    2.0546    1.4934 O   0  0  0  0  0  0  0  0  0  0  0  0
   -0.4006    0.0160   -0.1614 O   0  0  0  0  0  0  0  0  0  0  0  0
   -2.1442    1.9282   -1.0470 O   0  0  0  0  0  0  0  0  0  0  0  0
   -0.8787    1.5624   -0.0560 P   0  0  0  0  0  0  0  0  0  0  0  0
   -1.8704   -1.1988   -0.7333 H   0  0  0  0  0  0  0  0  0  0  0  0
   -1.1619   -0.2688   -2.0476 H   0  0  0  0  0  0  0  0  0  0  0  0
   -0.2207   -2.8529   -0.6940 H   0  0  0  0  0  0  0  0  0  0  0  0
   -1.8723   -2.7031   -2.4302 H   0  0  0  0  0  0  0  0  0  0  0  0
   -0.6952   -1.8935   -3.4985 H   0  0  0  0  0  0  0  0  0  0  0  0
   -1.9193    1.7364   -3.0481 H   0  0  0  0  0  0  0  0  0  0  0  0
   -0.4999    2.5810   -2.1827 H   0  0  0  0  0  0  0  0  0  0  0  0
   -1.9932    4.4490   -1.6474 H   0  0  0  0  0  0  0  0  0  0  0  0
   -3.3367    3.6376   -2.4706 H   0  0  0  0  0  0  0  0  0  0  0  0
    0.3030    4.1858   -3.1312 H   0  0  0  0  0  0  0  0  0  0  0  0
   -0.3020    2.8264   -4.2157 H   0  0  0  0  0  0  0  0  0  0  0  0
    0.0197    4.4616   -4.8609 H   0  0  0  0  0  0  0  0  0  0  0  0
   -2.6378    6.2000   -3.1911 H   0  0  0  0  0  0  0  0  0  0  0  0
   -0.8757    5.9935   -2.6627 H   0  0  0  0  0  0  0  0  0  0  0  0
   -1.3076    6.3292   -4.3725 H   0  0  0  0  0  0  0  0  0  0  0  0
   -2.4369    3.0674   -5.1939 H   0  0  0  0  0  0  0  0  0  0  0  0
   -3.5679    4.4409   -4.7056 H   0  0  0  0  0  0  0  0  0  0  0  0
   -2.0476    4.7503   -5.6876 H   0  0  0  0  0  0  0  0  0  0  0  0
   -1.5662   -3.5388   -4.5924 H   0  0  0  0  0  0  0  0  0  0  0  0
    0.5970   -4.4360   -5.5473 H   0  0  0  0  0  0  0  0  0  0  0  0
   -0.8781   -5.2923   -5.9773 H   0  0  0  0  0  0  0  0  0  0  0  0
    0.8920   -6.8119   -5.7096 H   0  0  0  0  0  0  0  0  0  0  0  0
   -0.4928   -7.1458   -4.6252 H   0  0  0  0  0  0  0  0  0  0  0  0
    2.0158   -7.6128   -3.9309 H   0  0  0  0  0  0  0  0  0  0  0  0
    2.2395   -5.8822   -3.8968 H   0  0  0  0  0  0  0  0  0  0  0  0
    1.0219   -5.6072   -1.7974 H   0  0  0  0  0  0  0  0  0  0  0  0
    2.1947   -6.9270   -1.7824 H   0  0  0  0  0  0  0  0  0  0  0  0
    0.6526   -8.5870   -1.9180 H   0  0  0  0  0  0  0  0  0  0  0  0
   -0.7746   -7.6023   -2.1962 H   0  0  0  0  0  0  0  0  0  0  0  0
   -0.3562   -8.3887    0.2582 H   0  0  0  0  0  0  0  0  0  0  0  0
    1.2703   -7.7658    0.1021 H   0  0  0  0  0  0  0  0  0  0  0  0
    0.3873   -5.3731    0.2776 H   0  0  0  0  0  0  0  0  0  0  0  0
    0.1188   -6.4850    1.6388 H   0  0  0  0  0  0  0  0  0  0  0  0
   -1.6909   -4.9445    1.3273 H   0  0  0  0  0  0  0  0  0  0  0  0
   -2.2372   -6.6475    1.2839 H   0  0  0  0  0  0  0  0  0  0  0  0
   -2.4543   -6.4087   -1.2444 H   0  0  0  0  0  0  0  0  0  0  0  0
   -1.9685   -4.6886   -1.0501 H   0  0  0  0  0  0  0  0  0  0  0  0
   -4.3617   -6.0165    0.2999 H   0  0  0  0  0  0  0  0  0  0  0  0
   -4.4168   -4.9941   -1.1804 H   0  0  0  0  0  0  0  0  0  0  0  0
   -3.3379   -3.1156    0.1883 H   0  0  0  0  0  0  0  0  0  0  0  0
   -3.4668   -4.1844    1.6257 H   0  0  0  0  0  0  0  0  0  0  0  0
   -5.7104   -4.3419    1.6588 H   0  0  0  0  0  0  0  0  0  0  0  0
   -5.9435   -3.4543    0.0529 H   0  0  0  0  0  0  0  0  0  0  0  0
   -4.8268   -1.4130    1.3239 H   0  0  0  0  0  0  0  0  0  0  0  0
   -4.8506   -2.4494    2.7760 H   0  0  0  0  0  0  0  0  0  0  0  0
   -7.2814   -1.6992    1.1385 H   0  0  0  0  0  0  0  0  0  0  0  0
   -7.2593   -2.7322    2.6592 H   0  0  0  0  0  0  0  0  0  0  0  0
   -7.9716   -0.5236    3.1804 H   0  0  0  0  0  0  0  0  0  0  0  0
   -6.5739    0.2664    2.3760 H   0  0  0  0  0  0  0  0  0  0  0  0
   -5.0491   -0.8078    4.0866 H   0  0  0  0  0  0  0  0  0  0  0  0
   -6.3249    0.2989    4.7232 H   0  0  0  0  0  0  0  0  0  0  0  0
   -7.6797   -2.1024    4.8827 H   0  0  0  0  0  0  0  0  0  0  0  0
   -5.9136   -2.5656    5.2061 H   0  0  0  0  0  0  0  0  0  0  0  0
   -6.7662   -1.3513    6.2064 H   0  0  0  0  0  0  0  0  0  0  0  0
    1.9076   -3.5583   -0.9756 H   0  0  0  0  0  0  0  0  0  0  0  0
    2.7094   -1.9205    0.5148 H   0  0  0  0  0  0  0  0  0  0  0  0
    3.9925   -2.7470   -0.3901 H   0  0  0  0  0  0  0  0  0  0  0  0
    2.9374    0.0635   -1.1774 H   0  0  0  0  0  0  0  0  0  0  0  0
    4.3015   -0.8282   -1.8371 H   0  0  0  0  0  0  0  0  0  0  0  0
    4.4088   -0.1194    1.1229 H   0  0  0  0  0  0  0  0  0  0  0  0
    5.6594   -0.7166    0.0131 H   0  0  0  0  0  0  0  0  0  0  0  0
    5.4835    1.2470   -1.3772 H   0  0  0  0  0  0  0  0  0  0  0  0
    4.1878    1.9536   -0.4196 H   0  0  0  0  0  0  0  0  0  0  0  0
    6.0104    1.8356    1.5837 H   0  0  0  0  0  0  0  0  0  0  0  0
    7.1608    1.4010    0.3095 H   0  0  0  0  0  0  0  0  0  0  0  0
    6.5439    3.5952   -0.8991 H   0  0  0  0  0  0  0  0  0  0  0  0
    7.3217    3.7117    0.6762 H   0  0  0  0  0  0  0  0  0  0  0  0
    5.3011    4.1496    1.7852 H   0  0  0  0  0  0  0  0  0  0  0  0
    4.2347    3.6898    0.4739 H   0  0  0  0  0  0  0  0  0  0  0  0
    5.0983    5.7667   -0.7821 H   0  0  0  0  0  0  0  0  0  0  0  0
    6.1053    6.1499    0.6391 H   0  0  0  0  0  0  0  0  0  0  0  0
    4.0645    7.4313    0.5900 H   0  0  0  0  0  0  0  0  0  0  0  0
    3.0331    5.9791    0.5372 H   0  0  0  0  0  0  0  0  0  0  0  0
    4.9545    7.0508    2.6645 H   0  0  0  0  0  0  0  0  0  0  0  0
    4.2659    5.4005    2.8858 H   0  0  0  0  0  0  0  0  0  0  0  0
    2.8110    8.0979    2.6618 H   0  0  0  0  0  0  0  0  0  0  0  0
    3.0447    7.1493    4.1869 H   0  0  0  0  0  0  0  0  0  0  0  0
    1.6041    5.3796    3.1960 H   0  0  0  0  0  0  0  0  0  0  0  0
    1.2943    6.3837    1.7551 H   0  0  0  0  0  0  0  0  0  0  0  0
    0.4046    8.1924    3.2195 H   0  0  0  0  0  0  0  0  0  0  0  0
    0.7483    7.2466    4.6831 H   0  0  0  0  0  0  0  0  0  0  0  0
   -1.2707    6.6050    2.4261 H   0  0  0  0  0  0  0  0  0  0  0  0
   -1.6515    7.0584    4.1181 H   0  0  0  0  0  0  0  0  0  0  0  0
   -0.6259    5.1965    5.0591 H   0  0  0  0  0  0  0  0  0  0  0  0
   -0.1582    4.4732    3.4429 H   0  0  0  0  0  0  0  0  0  0  0  0
   -2.9703    4.9394    4.6055 H   0  0  0  0  0  0  0  0  0  0  0  0
   -2.7177    4.4287    2.9386 H   0  0  0  0  0  0  0  0  0  0  0  0
   -2.2683    2.9432    5.5231 H   0  0  0  0  0  0  0  0  0  0  0  0
   -1.1659    2.5740    4.1692 H   0  0  0  0  0  0  0  0  0  0  0  0
   -2.9636    2.3791    3.9968 H   0  0  0  0  0  0  0  0  0  0  0  0
   -2.7616   -4.6736   -3.3118 H   0  0  0  0  0  0  0  0  0  0  0  0
    3.9338   -2.9100   -2.4672 H   0  0  0  0  0  0  0  0  0  0  0  0
    0.9870    2.6110    0.3098 H   0  0  0  0  0  0  0  0  0  0  0  0
   -1.6673    2.9531    1.3908 H   0  0  0  0  0  0  0  0  0  0  0  0
   -0.9803    0.6668    1.0004 H   0  0  0  0  0  0  0  0  0  0  0  0
  1  2  1  0
  1 52  1  0
  2  3  1  0
  2 46  1  0
  3 47  1  0
  4  5  1  0
  4 53  1  0
 45  5  1  1
  6 45  1  0
  7 45  1  0
  8 45  1  0
  9 10  1  0
  9 47  1  0
  9 48  1  0
 10 11  1  0
 11 12  1  0
 12 13  1  0
 13 14  1  0
 14 15  1  0
 15 16  1  0
 16 17  1  0
 17 18  1  0
 18 19  1  0
 19 20  1  0
 20 21  1  0
 21 22  1  0
 22 23  1  0
 23 24  1  0
 24 25  1  0
 25 26  1  0
 27 28  1  0
 27 46  1  0
 27 49  1  0
 28 29  1  0
 29 30  1  0
 30 31  1  0
 31 32  1  0
 32 33  1  0
 33 34  1  0
 34 35  1  0
 35 36  1  0
 36 37  1  0
 37 38  1  0
 38 39  1  0
 39 40  1  0
 40 41  1  0
 41 42  1  0
 42 43  1  0
 43 44  1  0
 50 54  1  0
 51 54  1  0
 52 54  1  0
 53 54  1  0
  1 55  1  0
  1 56  1  0
  2 57  1  1
  3 58  1  0
  3 59  1  0
  4 60  1  0
  4 61  1  0
  5 62  1  0
  5 63  1  0
  6 64  1  0
  6 65  1  0
  6 66  1  0
  7 67  1  0
  7 68  1  0
  7 69  1  0
  8 70  1  0
  8 71  1  0
  8 72  1  0
  9 73  1  0
 10 74  1  0
 10 75  1  0
 11 76  1  0
 11 77  1  0
 12 78  1  0
 12 79  1  0
 13 80  1  0
 13 81  1  0
 14 82  1  0
 14 83  1  0
 15 84  1  0
 15 85  1  0
 16 86  1  0
 16 87  1  0
 17 88  1  0
 17 89  1  0
 18 90  1  0
 18 91  1  0
 19 92  1  0
 19 93  1  0
 20 94  1  0
 20 95  1  0
 21 96  1  0
 21 97  1  0
 22 98  1  0
 22 99  1  0
 23100  1  0
 23101  1  0
 24102  1  0
 24103  1  0
 25104  1  0
 25105  1  0
 26106  1  0
 26107  1  0
 26108  1  0
 27109  1  1
 28110  1  0
 28111  1  0
 29112  1  0
 29113  1  0
 30114  1  0
 30115  1  0
 31116  1  0
 31117  1  0
 32118  1  0
 32119  1  0
 33120  1  0
 33121  1  0
 34122  1  0
 34123  1  0
 35124  1  0
 35125  1  0
 36126  1  0
 36127  1  0
 37128  1  0
 37129  1  0
 38130  1  0
 38131  1  0
 39132  1  0
 39133  1  0
 40134  1  0
 40135  1  0
 41136  1  0
 41137  1  0
 42138  1  0
 42139  1  0
 43140  1  0
 43141  1  0
 44142  1  0
 44143  1  0
 44144  1  0
 48145  1  0
 49146  1  0
 50147  1  0
 51148  1  0
 54149  1  0
M  CHG  1  45   1
M  END
$$$$
PHOSPHATIDYLCHOLINE TRANSFER PROTEIN
     RDKit          3D

149148  0  0  0  0  0  0  0  0999 V2000
   -3.4865    2.8058    1.0102 C   0  0  0  0  0  0  0  0  0  0  0  0
   -3.0080    1.3901    0.9589 C   0  0  1  0  0  0  0  0  0  0  0  0
   -2.3774    1.0530    2.3162 C   0  0  0  0  0  0  0  0  0  0  0  0
   -6.9864    5.6144    0.4827 C   0  0  0  0  0  0  0  0  0  0  0  0
   -8.0100    6.1984    1.3865 C   0  0  0  0  0  0  0  0  0  0  0  0
   -7.7133    4.8181    3.3190 C   0  0  0  0  0  0  0  0  0  0  0  0
   -9.3529    4.2466    1.6631 C   0  0  0  0  0  0  0  0  0  0  0  0
   -9.6594    6.0895    3.0427 C   0  0  0  0  0  0  0  0  0  0  0  0
   -1.0536   -0.5906    3.3662 C   0  0  0  0  0  0  0  0  0  0  0  0
   -1.1456   -2.0815    3.2306 C   0  0  0  0  0  0  0  0  0  0  0  0
   -0.3108   -2.6049    2.0854 C   0  0  0  0  0  0  0  0  0  0  0  0
   -0.5562   -1.9997    0.7510 C   0  0  0  0  0  0  0  0  0  0  0  0
    0.3389   -2.6470   -0.3305 C   0  0  0  0  0  0  0  0  0  0  0  0
    0.1565   -2.0180   -1.6673 C   0  0  0  0  0  0  0  0  0  0  0  0
    0.5425   -0.5439   -1.6549 C   0  0  0  0  0  0  0  0  0  0  0  0
    1.9850   -0.3835   -1.3096 C   0  0  0  0  0  0  0  0  0  0  0  0
    2.3921    1.0755   -1.2482 C   0  0  0  0  0  0  0  0  0  0  0  0
    3.8885    1.1097   -0.9441 C   0  0  0  0  0  0  0  0  0  0  0  0
    4.4526    2.4788   -0.7814 C   0  0  0  0  0  0  0  0  0  0  0  0
    5.9572    2.3650   -0.5331 C   0  0  0  0  0  0  0  0  0  0  0  0
    6.5730    3.7020   -0.2855 C   0  0  0  0  0  0  0  0  0  0  0  0
    5.9468    4.3522    0.9650 C   0  0  0  0  0  0  0  0  0  0  0  0
    6.1948    3.3882    2.0913 C   0  0  0  0  0  0  0  0  0  0  0  0
    5.6438    3.8825    3.4316 C   0  0  0  0  0  0  0  0  0  0  0  0
    5.9228    2.8157    4.4783 C   0  0  0  0  0  0  0  0  0  0  0  0
    5.4465    3.1697    5.8473 C   0  0  0  0  0  0  0  0  0  0  0  0
   -3.9598   -0.3609   -0.3905 C   0  0  1  0  0  0  0  0  0  0  0  0
   -4.5803    0.1969   -1.7071 C   0  0  0  0  0  0  0  0  0  0  0  0
   -4.6818   -0.8346   -2.7452 C   0  0  0  0  0  0  0  0  0  0  0  0
   -3.4548   -1.6386   -3.0672 C   0  0  0  0  0  0  0  0  0  0  0  0
   -3.6741   -2.5543   -4.2252 C   0  0  0  0  0  0  0  0  0  0  0  0
   -2.5683   -3.5046   -4.5500 C   0  0  0  0  0  0  0  0  0  0  0  0
   -2.3229   -4.5534   -3.4813 C   0  0  0  0  0  0  0  0  0  0  0  0
   -1.2838   -5.5370   -3.8278 C   0  0  0  0  0  0  0  0  0  0  0  0
    0.1277   -5.0957   -3.9734 C   0  0  0  0  0  0  0  0  0  0  0  0
    0.9889   -6.2430   -4.4732 C   0  0  0  0  0  0  0  0  0  0  0  0
    2.4332   -5.9774   -4.5858 C   0  0  0  0  0  0  0  0  0  0  0  0
    2.8684   -4.8157   -5.4023 C   0  0  0  0  0  0  0  0  0  0  0  0
    4.3658   -4.7448   -5.5160 C   0  0  0  0  0  0  0  0  0  0  0  0
    5.1503   -4.7192   -4.2746 C   0  0  0  0  0  0  0  0  0  0  0  0
    4.8968   -3.6037   -3.3049 C   0  0  0  0  0  0  0  0  0  0  0  0
    5.8418   -3.8182   -2.1444 C   0  0  0  0  0  0  0  0  0  0  0  0
    5.7353   -2.8222   -1.0446 C   0  0  0  0  0  0  0  0  0  0  0  0
    4.3636   -2.8138   -0.3968 C   0  0  0  0  0  0  0  0  0  0  0  0
   -8.6381    5.3157    2.3105 N   0  0  2  0  0  0  0  0  0  0  0  0
   -3.9498    0.5607    0.5553 O   0  0  0  0  0  0  0  0  0  0  0  0
   -1.5861   -0.0409    2.2407 O   0  0  0  0  0  0  0  0  0  0  0  0
    0.3532   -0.2458    3.4258 O   0  0  0  0  0  0  0  0  0  0  0  0
   -4.6021   -1.5075   -0.0850 O   0  0  0  0  0  0  0  0  0  0  0  0
   -5.5085    5.0638   -1.4563 O   0  0  0  0  0  0  0  0  0  0  0  0
   -4.4322    6.3147    0.6495 O   0  0  0  0  0  0  0  0  0  0  0  0
   -3.9162    3.2602   -0.2264 O   0  0  0  0  0  0  0  0  0  0  0  0
   -5.8977    5.0361    1.0706 O   0  0  0  0  0  0  0  0  0  0  0  0
   -4.6391    4.7772   -0.0202 P   0  0  0  0  0  0  0  0  0  0  0  0
   -2.6760    3.4334    1.4391 H   0  0  0  0  0  0  0  0  0  0  0  0
   -4.3138    2.8351    1.7594 H   0  0  0  0  0  0  0  0  0  0  0  0
   -2.0831    1.3892    0.2639 H   0  0  0  0  0  0  0  0  0  0  0  0
   -3.2314    0.9672    3.0278 H   0  0  0  0  0  0  0  0  0  0  0  0
   -1.7903    1.9373    2.6305 H   0  0  0  0  0  0  0  0  0  0  0  0
   -6.6079    6.4413   -0.1808 H   0  0  0  0  0  0  0  0  0  0  0  0
   -7.4473    4.8748   -0.2112 H   0  0  0  0  0  0  0  0  0  0  0  0
   -7.6106    7.0856    1.9215 H   0  0  0  0  0  0  0  0  0  0  0  0
   -8.8295    6.6037    0.7180 H   0  0  0  0  0  0  0  0  0  0  0  0
   -7.4292    3.7625    3.0800 H   0  0  0  0  0  0  0  0  0  0  0  0
   -8.1799    4.8684    4.3312 H   0  0  0  0  0  0  0  0  0  0  0  0
   -6.7955    5.4336    3.3832 H   0  0  0  0  0  0  0  0  0  0  0  0
   -9.8487    4.5847    0.7452 H   0  0  0  0  0  0  0  0  0  0  0  0
   -8.6433    3.4476    1.4095 H   0  0  0  0  0  0  0  0  0  0  0  0
  -10.0866    3.7720    2.3633 H   0  0  0  0  0  0  0  0  0  0  0  0
  -10.2732    5.3433    3.5750 H   0  0  0  0  0  0  0  0  0  0  0  0
   -9.1968    6.8321    3.7162 H   0  0  0  0  0  0  0  0  0  0  0  0
  -10.3377    6.5730    2.2895 H   0  0  0  0  0  0  0  0  0  0  0  0
   -1.4427   -0.2006    4.2822 H   0  0  0  0  0  0  0  0  0  0  0  0
   -0.7831   -2.6123    4.1392 H   0  0  0  0  0  0  0  0  0  0  0  0
   -2.1820   -2.4368    3.0817 H   0  0  0  0  0  0  0  0  0  0  0  0
    0.7696   -2.6345    2.3695 H   0  0  0  0  0  0  0  0  0  0  0  0
   -0.5792   -3.7004    1.9897 H   0  0  0  0  0  0  0  0  0  0  0  0
   -0.2918   -0.9072    0.7230 H   0  0  0  0  0  0  0  0  0  0  0  0
   -1.5905   -2.2059    0.4390 H   0  0  0  0  0  0  0  0  0  0  0  0
   -0.0313   -3.6928   -0.4042 H   0  0  0  0  0  0  0  0  0  0  0  0
    1.3817   -2.7004   -0.0324 H   0  0  0  0  0  0  0  0  0  0  0  0
   -0.8232   -2.1191   -2.1164 H   0  0  0  0  0  0  0  0  0  0  0  0
    0.9338   -2.4960   -2.3485 H   0  0  0  0  0  0  0  0  0  0  0  0
   -0.1231    0.0144   -1.0042 H   0  0  0  0  0  0  0  0  0  0  0  0
    0.4215   -0.1434   -2.7059 H   0  0  0  0  0  0  0  0  0  0  0  0
    2.2200   -0.8789   -0.3265 H   0  0  0  0  0  0  0  0  0  0  0  0
    2.6003   -0.8695   -2.0842 H   0  0  0  0  0  0  0  0  0  0  0  0
    2.2118    1.5997   -2.2066 H   0  0  0  0  0  0  0  0  0  0  0  0
    1.8490    1.6346   -0.4639 H   0  0  0  0  0  0  0  0  0  0  0  0
    4.0422    0.4672   -0.0390 H   0  0  0  0  0  0  0  0  0  0  0  0
    4.3706    0.5506   -1.7693 H   0  0  0  0  0  0  0  0  0  0  0  0
    4.3175    3.0320   -1.7093 H   0  0  0  0  0  0  0  0  0  0  0  0
    3.9504    2.9768    0.0736 H   0  0  0  0  0  0  0  0  0  0  0  0
    6.3585    2.0269   -1.5406 H   0  0  0  0  0  0  0  0  0  0  0  0
    6.2122    1.5791    0.1819 H   0  0  0  0  0  0  0  0  0  0  0  0
    6.3570    4.3873   -1.1280 H   0  0  0  0  0  0  0  0  0  0  0  0
    7.6587    3.6512   -0.0958 H   0  0  0  0  0  0  0  0  0  0  0  0
    4.9018    4.6307    0.8016 H   0  0  0  0  0  0  0  0  0  0  0  0
    6.5404    5.2672    1.1954 H   0  0  0  0  0  0  0  0  0  0  0  0
    5.5856    2.4610    1.8643 H   0  0  0  0  0  0  0  0  0  0  0  0
    7.2639    3.1658    2.1364 H   0  0  0  0  0  0  0  0  0  0  0  0
    6.1945    4.8045    3.6886 H   0  0  0  0  0  0  0  0  0  0  0  0
    4.5784    4.1342    3.3515 H   0  0  0  0  0  0  0  0  0  0  0  0
    7.0054    2.6288    4.4870 H   0  0  0  0  0  0  0  0  0  0  0  0
    5.4263    1.8643    4.1615 H   0  0  0  0  0  0  0  0  0  0  0  0
    4.4245    3.5477    5.8870 H   0  0  0  0  0  0  0  0  0  0  0  0
    6.1937    3.8216    6.3410 H   0  0  0  0  0  0  0  0  0  0  0  0
    5.4506    2.2064    6.4378 H   0  0  0  0  0  0  0  0  0  0  0  0
   -2.9214   -0.6211   -0.7896 H   0  0  0  0  0  0  0  0  0  0  0  0
   -5.5950    0.5345   -1.4327 H   0  0  0  0  0  0  0  0  0  0  0  0
   -3.9789    1.0701   -2.0394 H   0  0  0  0  0  0  0  0  0  0  0  0
   -5.4637   -1.5970   -2.4466 H   0  0  0  0  0  0  0  0  0  0  0  0
   -5.0852   -0.4432   -3.7197 H   0  0  0  0  0  0  0  0  0  0  0  0
   -2.5864   -0.9909   -3.2810 H   0  0  0  0  0  0  0  0  0  0  0  0
   -3.1700   -2.2989   -2.1951 H   0  0  0  0  0  0  0  0  0  0  0  0
   -4.6103   -3.1757   -4.0758 H   0  0  0  0  0  0  0  0  0  0  0  0
   -3.8960   -1.9794   -5.1677 H   0  0  0  0  0  0  0  0  0  0  0  0
   -1.6412   -2.9221   -4.7496 H   0  0  0  0  0  0  0  0  0  0  0  0
   -2.8175   -4.0354   -5.4785 H   0  0  0  0  0  0  0  0  0  0  0  0
   -3.2967   -5.1202   -3.3952 H   0  0  0  0  0  0  0  0  0  0  0  0
   -2.1972   -4.0813   -2.4735 H   0  0  0  0  0  0  0  0  0  0  0  0
   -1.2881   -6.3170   -3.0213 H   0  0  0  0  0  0  0  0  0  0  0  0
   -1.6519   -6.1045   -4.7252 H   0  0  0  0  0  0  0  0  0  0  0  0
    0.1952   -4.2836   -4.7094 H   0  0  0  0  0  0  0  0  0  0  0  0
    0.5573   -4.7028   -3.0153 H   0  0  0  0  0  0  0  0  0  0  0  0
    0.8357   -7.0701   -3.7523 H   0  0  0  0  0  0  0  0  0  0  0  0
    0.6191   -6.6278   -5.4495 H   0  0  0  0  0  0  0  0  0  0  0  0
    2.9389   -5.8827   -3.5914 H   0  0  0  0  0  0  0  0  0  0  0  0
    2.9086   -6.8916   -5.0339 H   0  0  0  0  0  0  0  0  0  0  0  0
    2.4826   -4.9149   -6.4533 H   0  0  0  0  0  0  0  0  0  0  0  0
    2.5393   -3.8289   -4.9621 H   0  0  0  0  0  0  0  0  0  0  0  0
    4.6896   -3.9125   -6.1872 H   0  0  0  0  0  0  0  0  0  0  0  0
    4.6596   -5.6827   -6.0881 H   0  0  0  0  0  0  0  0  0  0  0  0
    6.2416   -4.5829   -4.5862 H   0  0  0  0  0  0  0  0  0  0  0  0
    5.1757   -5.7149   -3.7664 H   0  0  0  0  0  0  0  0  0  0  0  0
    5.1078   -2.6429   -3.7663 H   0  0  0  0  0  0  0  0  0  0  0  0
    3.8243   -3.6250   -3.0106 H   0  0  0  0  0  0  0  0  0  0  0  0
    5.7509   -4.8304   -1.6973 H   0  0  0  0  0  0  0  0  0  0  0  0
    6.8730   -3.7683   -2.5531 H   0  0  0  0  0  0  0  0  0  0  0  0
    5.9596   -1.7938   -1.4026 H   0  0  0  0  0  0  0  0  0  0  0  0
    6.4713   -3.0153   -0.2335 H   0  0  0  0  0  0  0  0  0  0  0  0
    3.5302   -2.9012   -1.1115 H   0  0  0  0  0  0  0  0  0  0  0  0
    4.2575   -3.6406    0.3554 H   0  0  0  0  0  0  0  0  0  0  0  0
    4.3037   -1.8851    0.2078 H   0  0  0  0  0  0  0  0  0  0  0  0
    0.6111   -0.5506    4.3376 H   0  0  0  0  0  0  0  0  0  0  0  0
   -5.5784   -1.3841   -0.1558 H   0  0  0  0  0  0  0  0  0  0  0  0
   -6.0693    4.2320   -1.5777 H   0  0  0  0  0  0  0  0  0  0  0  0
   -3.7098    6.3148    1.3576 H   0  0  0  0  0  0  0  0  0  0  0  0
   -4.4054    5.8563   -0.9227 H   0  0  0  0  0  0  0  0  0  0  0  0
  1  2  1  0
  1 52  1  0
  2  3  1  0
  2 46  1  0
  3 47  1  0
  4  5  1  0
  4 53  1  0
 45  5  1  6
  6 45  1  0
  7 45  1  0
  8 45  1  0
  9 10  1  0
  9 47  1  0
  9 48  1  0
 10 11  1  0
 11 12  1  0
 12 13  1  0
 13 14  1  0
 14 15  1  0
 15 16  1  0
 16 17  1  0
 17 18  1  0
 18 19  1  0
 19 20  1  0
 20 21  1  0
 21 22  1  0
 22 23  1  0
 23 24  1  0
 24 25  1  0
 25 26  1  0
 27 28  1  0
 27 46  1  0
 27 49  1  0
 28 29  1  0
 29 30  1  0
 30 31  1  0
 31 32  1  0
 32 33  1  0
 33 34  1  0
 34 35  1  0
 35 36  1  0
 36 37  1  0
 37 38  1  0
 38 39  1  0
 39 40  1  0
 40 41  1  0
 41 42  1  0
 42 43  1  0
 43 44  1  0
 50 54  1  0
 51 54  1  0
 52 54  1  0
 53 54  1  0
  1 55  1  0
  1 56  1  0
  2 57  1  6
  3 58  1  0
  3 59  1  0
  4 60  1  0
  4 61  1  0
  5 62  1  0
  5 63  1  0
  6 64  1  0
  6 65  1  0
  6 66  1  0
  7 67  1  0
  7 68  1  0
  7 69  1  0
  8 70  1  0
  8 71  1  0
  8 72  1  0
  9 73  1  0
 10 74  1  0
 10 75  1  0
 11 76  1  0
 11 77  1  0
 12 78  1  0
 12 79  1  0
 13 80  1  0
 13 81  1  0
 14 82  1  0
 14 83  1  0
 15 84  1  0
 15 85  1  0
 16 86  1  0
 16 87  1  0
 17 88  1  0
 17 89  1  0
 18 90  1  0
 18 91  1  0
 19 92  1  0
 19 93  1  0
 20 94  1  0
 20 95  1  0
 21 96  1  0
 21 97  1  0
 22 98  1  0
 22 99  1  0
 23100  1  0
 23101  1  0
 24102  1  0
 24103  1  0
 25104  1  0
 25105  1  0
 26106  1  0
 26107  1  0
 26108  1  0
 27109  1  6
 28110  1  0
 28111  1  0
 29112  1  0
 29113  1  0
 30114  1  0
 30115  1  0
 31116  1  0
 31117  1  0
 32118  1  0
 32119  1  0
 33120  1  0
 33121  1  0
 34122  1  0
 34123  1  0
 35124  1  0
 35125  1  0
 36126  1  0
 36127  1  0
 37128  1  0
 37129  1  0
 38130  1  0
 38131  1  0
 39132  1  0
 39133  1  0
 40134  1  0
 40135  1  0
 41136  1  0
 41137  1  0
 42138  1  0
 42139  1  0
 43140  1  0
 43141  1  0
 44142  1  0
 44143  1  0
 44144  1  0
 48145  1  0
 49146  1  0
 50147  1  0
 51148  1  0
 54149  1  0
M  CHG  1  45   1
M  END
$$$$
PHOSPHATIDYLCHOLINE TRANSFER PROTEIN
     RDKit          3D

149148  0  0  0  0  0  0  0  0999 V2000
   -0.0600   -1.5600   -2.8778 C   0  0  0  0  0  0  0  0  0  0  0  0
    1.3119   -0.8881   -3.1239 C   0  0  1  0  0  0  0  0  0  0  0  0
    1.2248   -0.3234   -4.4918 C   0  0  0  0  0  0  0  0  0  0  0  0
   -4.5998   -0.1176   -2.6332 C   0  0  0  0  0  0  0  0  0  0  0  0
   -5.8241    0.5470   -3.2010 C   0  0  0  0  0  0  0  0  0  0  0  0
   -6.7943    2.4579   -2.1958 C   0  0  0  0  0  0  0  0  0  0  0  0
   -6.3529    0.5701   -0.8467 C   0  0  0  0  0  0  0  0  0  0  0  0
   -8.0939    0.5249   -2.4230 C   0  0  0  0  0  0  0  0  0  0  0  0
    2.7058    1.4994   -4.4294 C   0  0  0  0  0  0  0  0  0  0  0  0
    4.1892    1.6818   -4.5526 C   0  0  0  0  0  0  0  0  0  0  0  0
    4.6282    2.9530   -3.8735 C   0  0  0  0  0  0  0  0  0  0  0  0
    6.0611    3.2849   -4.0272 C   0  0  0  0  0  0  0  0  0  0  0  0
    7.0867    2.3603   -3.5607 C   0  0  0  0  0  0  0  0  0  0  0  0
    7.2478    1.9046   -2.1891 C   0  0  0  0  0  0  0  0  0  0  0  0
    7.4882    2.8363   -1.0722 C   0  0  0  0  0  0  0  0  0  0  0  0
    6.3163    3.7217   -0.7870 C   0  0  0  0  0  0  0  0  0  0  0  0
    6.6012    4.6872    0.3539 C   0  0  0  0  0  0  0  0  0  0  0  0
    7.0074    4.0386    1.6245 C   0  0  0  0  0  0  0  0  0  0  0  0
    6.0313    3.0563    2.2156 C   0  0  0  0  0  0  0  0  0  0  0  0
    6.5805    2.4813    3.5045 C   0  0  0  0  0  0  0  0  0  0  0  0
    5.6427    1.4465    4.1355 C   0  0  0  0  0  0  0  0  0  0  0  0
    4.3065    1.9864    4.4765 C   0  0  0  0  0  0  0  0  0  0  0  0
    3.3371    1.0948    5.1492 C   0  0  0  0  0  0  0  0  0  0  0  0
    2.8128   -0.1173    4.5231 C   0  0  0  0  0  0  0  0  0  0  0  0
    3.7086   -1.2295    4.1276 C   0  0  0  0  0  0  0  0  0  0  0  0
    4.5317   -1.7811    5.2828 C   0  0  0  0  0  0  0  0  0  0  0  0
    2.4952   -0.3212   -1.2445 C   0  0  1  0  0  0  0  0  0  0  0  0
    2.1188   -0.0775    0.1724 C   0  0  0  0  0  0  0  0  0  0  0  0
    1.9189    1.3408    0.5313 C   0  0  0  0  0  0  0  0  0  0  0  0
    0.9186    2.1531   -0.1544 C   0  0  0  0  0  0  0  0  0  0  0  0
   -0.5161    1.7839   -0.0785 C   0  0  0  0  0  0  0  0  0  0  0  0
   -1.0093    1.7512    1.3535 C   0  0  0  0  0  0  0  0  0  0  0  0
   -2.4806    1.4920    1.4126 C   0  0  0  0  0  0  0  0  0  0  0  0
   -3.0685    1.4290    2.7532 C   0  0  0  0  0  0  0  0  0  0  0  0
   -2.7156    0.3940    3.7199 C   0  0  0  0  0  0  0  0  0  0  0  0
   -3.0655   -1.0101    3.5218 C   0  0  0  0  0  0  0  0  0  0  0  0
   -2.6458   -1.8163    2.3755 C   0  0  0  0  0  0  0  0  0  0  0  0
   -3.2554   -3.2405    2.5887 C   0  0  0  0  0  0  0  0  0  0  0  0
   -2.8854   -4.0963    1.4097 C   0  0  0  0  0  0  0  0  0  0  0  0
   -3.4940   -5.4751    1.6112 C   0  0  0  0  0  0  0  0  0  0  0  0
   -4.9963   -5.3650    1.7358 C   0  0  0  0  0  0  0  0  0  0  0  0
   -5.6762   -4.7629    0.5524 C   0  0  0  0  0  0  0  0  0  0  0  0
   -7.1755   -4.7413    0.8826 C   0  0  0  0  0  0  0  0  0  0  0  0
   -7.9789   -4.1477   -0.2371 C   0  0  0  0  0  0  0  0  0  0  0  0
   -6.7305    1.0096   -2.1747 N   0  0  2  0  0  0  0  0  0  0  0  0
    1.5494    0.0779   -2.1836 O   0  0  0  0  0  0  0  0  0  0  0  0
    2.2775    0.3459   -5.0337 O   0  0  0  0  0  0  0  0  0  0  0  0
    2.1485    2.5504   -5.2959 O   0  0  0  0  0  0  0  0  0  0  0  0
    3.6406    0.4461   -1.5320 O   0  0  0  0  0  0  0  0  0  0  0  0
   -2.4723   -3.1847   -3.2619 O   0  0  0  0  0  0  0  0  0  0  0  0
   -2.9691   -1.7673   -1.4606 O   0  0  0  0  0  0  0  0  0  0  0  0
   -1.0544   -0.6210   -2.9800 O   0  0  0  0  0  0  0  0  0  0  0  0
   -3.7499   -0.5542   -3.6236 O   0  0  0  0  0  0  0  0  0  0  0  0
   -2.5055   -1.4996   -3.0620 P   0  0  0  0  0  0  0  0  0  0  0  0
   -0.1739   -2.2931   -3.6982 H   0  0  0  0  0  0  0  0  0  0  0  0
   -0.0514   -2.1073   -1.9281 H   0  0  0  0  0  0  0  0  0  0  0  0
    2.0235   -1.7416   -3.0326 H   0  0  0  0  0  0  0  0  0  0  0  0
    0.8500   -1.1295   -5.2125 H   0  0  0  0  0  0  0  0  0  0  0  0
    0.3500    0.4165   -4.5542 H   0  0  0  0  0  0  0  0  0  0  0  0
   -4.0590    0.6208   -1.9996 H   0  0  0  0  0  0  0  0  0  0  0  0
   -4.8820   -0.9697   -1.9905 H   0  0  0  0  0  0  0  0  0  0  0  0
   -6.4002   -0.1750   -3.8466 H   0  0  0  0  0  0  0  0  0  0  0  0
   -5.5633    1.3848   -3.8595 H   0  0  0  0  0  0  0  0  0  0  0  0
   -6.8809    2.7904   -3.2496 H   0  0  0  0  0  0  0  0  0  0  0  0
   -7.7083    2.7966   -1.6886 H   0  0  0  0  0  0  0  0  0  0  0  0
   -5.8898    2.9177   -1.7586 H   0  0  0  0  0  0  0  0  0  0  0  0
   -5.3945    1.0097   -0.5085 H   0  0  0  0  0  0  0  0  0  0  0  0
   -7.1398    0.9899   -0.1623 H   0  0  0  0  0  0  0  0  0  0  0  0
   -6.4170   -0.5204   -0.7350 H   0  0  0  0  0  0  0  0  0  0  0  0
   -8.5416    0.1180   -1.5048 H   0  0  0  0  0  0  0  0  0  0  0  0
   -8.7312    1.3248   -2.8317 H   0  0  0  0  0  0  0  0  0  0  0  0
   -8.0085   -0.2694   -3.2065 H   0  0  0  0  0  0  0  0  0  0  0  0
    2.2365    1.7553   -3.4917 H   0  0  0  0  0  0  0  0  0  0  0  0
    4.4759    1.7385   -5.6178 H   0  0  0  0  0  0  0  0  0  0  0  0
    4.7235    0.7895   -4.1307 H   0  0  0  0  0  0  0  0  0  0  0  0
    4.3421    2.9857   -2.8105 H   0  0  0  0  0  0  0  0  0  0  0  0
    4.0303    3.7812   -4.3522 H   0  0  0  0  0  0  0  0  0  0  0  0
    6.2014    3.2952   -5.1965 H   0  0  0  0  0  0  0  0  0  0  0  0
    6.2123    4.3721   -3.8291 H   0  0  0  0  0  0  0  0  0  0  0  0
    6.9477    1.3986   -4.1874 H   0  0  0  0  0  0  0  0  0  0  0  0
    8.1267    2.6698   -3.9260 H   0  0  0  0  0  0  0  0  0  0  0  0
    6.4192    1.1785   -1.9303 H   0  0  0  0  0  0  0  0  0  0  0  0
    8.1497    1.1898   -2.1983 H   0  0  0  0  0  0  0  0  0  0  0  0
    7.6661    2.2717   -0.0996 H   0  0  0  0  0  0  0  0  0  0  0  0
    8.4398    3.4179   -1.1775 H   0  0  0  0  0  0  0  0  0  0  0  0
    5.9057    4.2861   -1.6226 H   0  0  0  0  0  0  0  0  0  0  0  0
    5.4700    3.0657   -0.4222 H   0  0  0  0  0  0  0  0  0  0  0  0
    7.3584    5.4117    0.0517 H   0  0  0  0  0  0  0  0  0  0  0  0
    5.6531    5.2603    0.5566 H   0  0  0  0  0  0  0  0  0  0  0  0
    7.0876    4.8655    2.3904 H   0  0  0  0  0  0  0  0  0  0  0  0
    8.0028    3.5474    1.5214 H   0  0  0  0  0  0  0  0  0  0  0  0
    5.0421    3.5043    2.3862 H   0  0  0  0  0  0  0  0  0  0  0  0
    5.9085    2.2146    1.5269 H   0  0  0  0  0  0  0  0  0  0  0  0
    6.7248    3.2414    4.3009 H   0  0  0  0  0  0  0  0  0  0  0  0
    7.5211    1.9750    3.2553 H   0  0  0  0  0  0  0  0  0  0  0  0
    5.6119    0.5868    3.4724 H   0  0  0  0  0  0  0  0  0  0  0  0
    6.1558    1.0944    5.0663 H   0  0  0  0  0  0  0  0  0  0  0  0
    4.4886    2.9342    5.0882 H   0  0  0  0  0  0  0  0  0  0  0  0
    3.7909    2.4006    3.5421 H   0  0  0  0  0  0  0  0  0  0  0  0
    2.4282    1.7639    5.3773 H   0  0  0  0  0  0  0  0  0  0  0  0
    3.6945    0.8774    6.2127 H   0  0  0  0  0  0  0  0  0  0  0  0
    2.0219   -0.5740    5.2040 H   0  0  0  0  0  0  0  0  0  0  0  0
    2.2156    0.1442    3.5972 H   0  0  0  0  0  0  0  0  0  0  0  0
    4.3309   -1.1262    3.2551 H   0  0  0  0  0  0  0  0  0  0  0  0
    2.9703   -2.0962    3.8726 H   0  0  0  0  0  0  0  0  0  0  0  0
    4.8111   -2.8209    5.0072 H   0  0  0  0  0  0  0  0  0  0  0  0
    3.9871   -1.7085    6.2431 H   0  0  0  0  0  0  0  0  0  0  0  0
    5.4806   -1.2001    5.3045 H   0  0  0  0  0  0  0  0  0  0  0  0
    2.7857   -1.3500   -1.4188 H   0  0  0  0  0  0  0  0  0  0  0  0
    1.2550   -0.6770    0.5068 H   0  0  0  0  0  0  0  0  0  0  0  0
    2.9948   -0.4455    0.7865 H   0  0  0  0  0  0  0  0  0  0  0  0
    1.6514    1.3538    1.6388 H   0  0  0  0  0  0  0  0  0  0  0  0
    2.9063    1.8915    0.5320 H   0  0  0  0  0  0  0  0  0  0  0  0
    1.0042    3.1985    0.2996 H   0  0  0  0  0  0  0  0  0  0  0  0
    1.1385    2.3575   -1.2319 H   0  0  0  0  0  0  0  0  0  0  0  0
   -0.7092    0.8243   -0.6026 H   0  0  0  0  0  0  0  0  0  0  0  0
   -1.1731    2.5214   -0.5933 H   0  0  0  0  0  0  0  0  0  0  0  0
   -0.3741    1.0487    1.8973 H   0  0  0  0  0  0  0  0  0  0  0  0
   -0.7854    2.7651    1.7830 H   0  0  0  0  0  0  0  0  0  0  0  0
   -2.9358    2.3492    0.8117 H   0  0  0  0  0  0  0  0  0  0  0  0
   -2.7190    0.6166    0.8023 H   0  0  0  0  0  0  0  0  0  0  0  0
   -2.8112    2.4271    3.2507 H   0  0  0  0  0  0  0  0  0  0  0  0
   -4.2055    1.5147    2.7345 H   0  0  0  0  0  0  0  0  0  0  0  0
   -3.2403    0.6885    4.6962 H   0  0  0  0  0  0  0  0  0  0  0  0
   -1.6320    0.5333    4.0672 H   0  0  0  0  0  0  0  0  0  0  0  0
   -2.6844   -1.5642    4.4503 H   0  0  0  0  0  0  0  0  0  0  0  0
   -4.1922   -1.1947    3.6353 H   0  0  0  0  0  0  0  0  0  0  0  0
   -1.5581   -2.0070    2.3329 H   0  0  0  0  0  0  0  0  0  0  0  0
   -3.0567   -1.5549    1.3819 H   0  0  0  0  0  0  0  0  0  0  0  0
   -4.3394   -3.1378    2.7355 H   0  0  0  0  0  0  0  0  0  0  0  0
   -2.8513   -3.6691    3.5260 H   0  0  0  0  0  0  0  0  0  0  0  0
   -3.3044   -3.6804    0.4733 H   0  0  0  0  0  0  0  0  0  0  0  0
   -1.8084   -4.2041    1.2677 H   0  0  0  0  0  0  0  0  0  0  0  0
   -3.1130   -5.8664    2.5746 H   0  0  0  0  0  0  0  0  0  0  0  0
   -3.2462   -6.1082    0.7537 H   0  0  0  0  0  0  0  0  0  0  0  0
   -5.3342   -4.8969    2.6664 H   0  0  0  0  0  0  0  0  0  0  0  0
   -5.3563   -6.4350    1.8055 H   0  0  0  0  0  0  0  0  0  0  0  0
   -5.3300   -3.7388    0.3123 H   0  0  0  0  0  0  0  0  0  0  0  0
   -5.5406   -5.3948   -0.3526 H   0  0  0  0  0  0  0  0  0  0  0  0
   -7.5262   -5.7442    1.1703 H   0  0  0  0  0  0  0  0  0  0  0  0
   -7.2452   -4.0432    1.7618 H   0  0  0  0  0  0  0  0  0  0  0  0
   -8.4876   -4.8825   -0.8673 H   0  0  0  0  0  0  0  0  0  0  0  0
   -7.2879   -3.5669   -0.9130 H   0  0  0  0  0  0  0  0  0  0  0  0
   -8.6772   -3.3547    0.1582 H   0  0  0  0  0  0  0  0  0  0  0  0
    1.1973    2.6519   -5.0918 H   0  0  0  0  0  0  0  0  0  0  0  0
    4.4643   -0.0444   -1.2852 H   0  0  0  0  0  0  0  0  0  0  0  0
   -1.8046   -3.4880   -3.9289 H   0  0  0  0  0  0  0  0  0  0  0  0
   -2.2031   -1.6053   -0.8224 H   0  0  0  0  0  0  0  0  0  0  0  0
   -3.5451   -2.3401   -2.6958 H   0  0  0  0  0  0  0  0  0  0  0  0
  1  2  1  0
  1 52  1  0
  2  3  1  0
  2 46  1  0
  3 47  1  0
  4  5  1  0
  4 53  1  0
 45  5  1  6
  6 45  1  0
  7 45  1  0
  8 45  1  0
  9 10  1  0
  9 47  1  0
  9 48  1  0
 10 11  1  0
 11 12  1  0
 12 13  1  0
 13 14  1  0
 14 15  1  0
 15 16  1  0
 16 17  1  0
 17 18  1  0
 18 19  1  0
 19 20  1  0
 20 21  1  0
 21 22  1  0
 22 23  1  0
 23 24  1  0
 24 25  1  0
 25 26  1  0
 27 28  1  0
 27 46  1  0
 27 49  1  0
 28 29  1  0
 29 30  1  0
 30 31  1  0
 31 32  1  0
 32 33  1  0
 33 34  1  0
 34 35  1  0
 35 36  1  0
 36 37  1  0
 37 38  1  0
 38 39  1  0
 39 40  1  0
 40 41  1  0
 41 42  1  0
 42 43  1  0
 43 44  1  0
 50 54  1  0
 51 54  1  0
 52 54  1  0
 53 54  1  0
  1 55  1  0
  1 56  1  0
  2 57  1  6
  3 58  1  0
  3 59  1  0
  4 60  1  0
  4 61  1  0
  5 62  1  0
  5 63  1  0
  6 64  1  0
  6 65  1  0
  6 66  1  0
  7 67  1  0
  7 68  1  0
  7 69  1  0
  8 70  1  0
  8 71  1  0
  8 72  1  0
  9 73  1  0
 10 74  1  0
 10 75  1  0
 11 76  1  0
 11 77  1  0
 12 78  1  0
 12 79  1  0
 13 80  1  0
 13 81  1  0
 14 82  1  0
 14 83  1  0
 15 84  1  0
 15 85  1  0
 16 86  1  0
 16 87  1  0
 17 88  1  0
 17 89  1  0
 18 90  1  0
 18 91  1  0
 19 92  1  0
 19 93  1  0
 20 94  1  0
 20 95  1  0
 21 96  1  0
 21 97  1  0
 22 98  1  0
 22 99  1  0
 23100  1  0
 23101  1  0
 24102  1  0
 24103  1  0
 25104  1  0
 25105  1  0
 26106  1  0
 26107  1  0
 26108  1  0
 27109  1  1
 28110  1  0
 28111  1  0
 29112  1  0
 29113  1  0
 30114  1  0
 30115  1  0
 31116  1  0
 31117  1  0
 32118  1  0
 32119  1  0
 33120  1  0
 33121  1  0
 34122  1  0
 34123  1  0
 35124  1  0
 35125  1  0
 36126  1  0
 36127  1  0
 37128  1  0
 37129  1  0
 38130  1  0
 38131  1  0
 39132  1  0
 39133  1  0
 40134  1  0
 40135  1  0
 41136  1  0
 41137  1  0
 42138  1  0
 42139  1  0
 43140  1  0
 43141  1  0
 44142  1  0
 44143  1  0
 44144  1  0
 48145  1  0
 49146  1  0
 50147  1  0
 51148  1  0
 54149  1  0
M  CHG  1  45   1
M  END
$$$$
