@<TRIPOS>MOLECULE
/Users/xuhangdai/Desktop/Projects/OptimalTransport/extra_bio_ligands_boltz_af3/boltz_results_8w4x_sugars/8w4x_sugars_model_3_chainB.pdb
 12 12 0 0 0
SMALL
GASTEIGER

@<TRIPOS>ATOM
      1  O13       -7.3000    3.6300    6.9070 O.3     0  LIG0       -0.2176
      2  C19       -6.9070    3.3670    5.5720 C.3     0  LIG0        0.2142
      3  C24       -7.6170    2.1320    5.0560 C.3     0  LIG0        0.1836
      4  O18       -7.3350    1.0260    5.9450 O.3     0  LIG0       -0.3236
      5  C20       -7.9210   -0.2060    5.5030 C.3     0  LIG0        0.3024
      6  O14       -7.5480   -1.2160    6.4230 O.3     0  LIG0       -0.1869
      7  C22       -9.4350   -0.0870    5.4010 C.3     0  LIG0        0.2434
      8  O16       -9.9660   -1.3110    4.9260 O.3     0  LIG0       -0.2148
      9  C21       -9.8200    1.0670    4.4720 C.3     0  LIG0        0.2199
     10  O15      -11.2230    1.2180    4.4700 O.3     0  LIG0       -0.2174
     11  C23       -9.1360    2.3510    4.9250 C.3     0  LIG0        0.2144
     12  O17       -9.3910    3.3980    4.0200 O.3     0  LIG0       -0.2176
@<TRIPOS>BOND
     1    12    11    1
     2    10     9    1
     3     9    11    1
     4     9     7    1
     5    11     3    1
     6     8     7    1
     7     3     2    1
     8     3     4    1
     9     7     5    1
    10     5     4    1
    11     5     6    1
    12     2     1    1
