@<TRIPOS>MOLECULE
/Users/xuhangdai/Desktop/Projects/OptimalTransport/extra_bio_ligands_boltz_af3/boltz_results_8w4x_sugars/8w4x_sugars_model_11_chainC.pdb
 23 24 0 0 0
SMALL
GASTEIGER

@<TRIPOS>ATOM
      1  O23       -0.8390    1.8440   -8.1530 O.3     0  LIG0       -0.2176
      2  C34        0.3870    1.2380   -8.5120 C.3     0  LIG0        0.2142
      3  C44        0.1310   -0.0420   -9.2670 C.3     0  LIG0        0.1835
      4  O32       -0.5910    0.2730  -10.4590 O.3     0  LIG0       -0.3256
      5  C37       -0.9440   -0.8580  -11.2490 C.3     0  LIG0        0.2695
      6  O31       -1.5540   -0.4470  -12.4340 O.3     0  LIG0       -0.3257
      7  C43       -2.9090   -0.0180  -12.3300 C.3     0  LIG0        0.1804
      8  C39       -2.9600    1.4810  -12.6030 C.3     0  LIG0        0.2168
      9  O27       -2.3550    2.1990  -11.5190 O.3     0  LIG0       -0.2175
     10  C41       -4.3980    1.9460  -12.7970 C.3     0  LIG0        0.2433
     11  O29       -4.4200    3.3090  -13.1970 O.3     0  LIG0       -0.2148
     12  C36       -5.0940    1.1040  -13.8640 C.3     0  LIG0        0.3023
     13  O25       -6.4360    1.4730  -14.0150 O.3     0  LIG0       -0.1869
     14  O33       -5.0440   -0.2900  -13.4760 O.3     0  LIG0       -0.3237
     15  C45       -3.7200   -0.8000  -13.3520 C.3     0  LIG0        0.1804
     16  C35       -3.7770   -2.2770  -12.9740 C.3     0  LIG0        0.2141
     17  O24       -4.4360   -3.0350  -13.9620 O.3     0  LIG0       -0.2176
     18  C40        0.2790   -1.6720  -11.6500 C.3     0  LIG0        0.2406
     19  O28       -0.1230   -2.8510  -12.3460 O.3     0  LIG0       -0.2149
     20  C38        1.1050   -2.0490  -10.4190 C.3     0  LIG0        0.2198
     21  O26        2.2970   -2.7000  -10.8360 O.3     0  LIG0       -0.2174
     22  C42        1.4220   -0.8070   -9.6180 C.3     0  LIG0        0.2144
     23  O30        2.1110   -1.1480   -8.4260 O.3     0  LIG0       -0.2176
@<TRIPOS>BOND
     1    13    12    1
     2    17    16    1
     3    12    14    1
     4    12    10    1
     5    14    15    1
     6    15    16    1
     7    15     7    1
     8    11    10    1
     9    10     8    1
    10     8     7    1
    11     8     9    1
    12     6     7    1
    13     6     5    1
    14    19    18    1
    15    18     5    1
    16    18    20    1
    17     5     4    1
    18    21    20    1
    19     4     3    1
    20    20    22    1
    21    22     3    1
    22    22    23    1
    23     3     2    1
    24     2     1    1
