@<TRIPOS>MOLECULE
/Users/xuhangdai/Desktop/Projects/OptimalTransport/extra_bio_ligands_boltz_af3/boltz_results_8w4x_sugars/8w4x_sugars_model_49_chainB.pdb
 12 12 0 0 0
SMALL
GASTEIGER

@<TRIPOS>ATOM
      1  O13        3.9840   11.8940    6.3260 O.3     0  LIG0       -0.2176
      2  C19        2.9590   12.6830    6.8820 C.3     0  LIG0        0.2142
      3  C24        3.5400   13.8080    7.7330 C.3     0  LIG0        0.1836
      4  O18        4.2040   13.2400    8.8900 O.3     0  LIG0       -0.3236
      5  C20        4.7040   14.2390    9.8020 C.3     0  LIG0        0.3024
      6  O14        5.3040   13.5750   10.8990 O.3     0  LIG0       -0.1869
      7  C22        5.7020   15.1830    9.1180 C.3     0  LIG0        0.2434
      8  O16        6.0980   16.1940   10.0340 O.3     0  LIG0       -0.2148
      9  C21        5.0780   15.8050    7.8630 C.3     0  LIG0        0.2199
     10  O15        6.0560   16.5730    7.1810 O.3     0  LIG0       -0.2174
     11  C23        4.5140   14.7120    6.9500 C.3     0  LIG0        0.2144
     12  O17        3.8560   15.2740    5.8420 O.3     0  LIG0       -0.2176
@<TRIPOS>BOND
     1    12    11    1
     2     1     2    1
     3     2     3    1
     4    11     3    1
     5    11     9    1
     6    10     9    1
     7     3     4    1
     8     9     7    1
     9     4     5    1
    10     7     5    1
    11     7     8    1
    12     5     6    1
