@<TRIPOS>MOLECULE
/Users/xuhangdai/Desktop/Projects/OptimalTransport/extra_bio_ligands_boltz_af3/boltz_results_8w4x_sugars/8w4x_sugars_model_42_chainC.pdb
 23 24 0 0 0
SMALL
GASTEIGER

@<TRIPOS>ATOM
      1  O23       -3.6580   -6.0260   -4.4480 O.3     0  LIG0       -0.2176
      2  C34       -3.2170   -7.0540   -3.5690 C.3     0  LIG0        0.2142
      3  C44       -4.4090   -7.8700   -3.0830 C.3     0  LIG0        0.1835
      4  O32       -4.9770   -8.5900   -4.1930 O.3     0  LIG0       -0.3256
      5  C37       -6.1000   -9.4430   -3.9320 C.3     0  LIG0        0.2695
      6  O31       -7.2510   -8.6080   -3.8130 O.3     0  LIG0       -0.3257
      7  C43       -8.2210   -8.6970   -4.8780 C.3     0  LIG0        0.1804
      8  C39       -9.5890   -8.4670   -4.2800 C.3     0  LIG0        0.2168
      9  O27       -9.8790   -9.4650   -3.2970 O.3     0  LIG0       -0.2175
     10  C41      -10.6520   -8.4750   -5.3780 C.3     0  LIG0        0.2433
     11  O29      -11.9220   -8.1550   -4.8440 O.3     0  LIG0       -0.2148
     12  C36      -10.3200   -7.4650   -6.4710 C.3     0  LIG0        0.3023
     13  O25      -11.2550   -7.5240   -7.5220 O.3     0  LIG0       -0.1869
     14  O33       -9.0200   -7.7470   -6.9950 O.3     0  LIG0       -0.3237
     15  C45       -7.9690   -7.6910   -6.0160 C.3     0  LIG0        0.1804
     16  C35       -6.6520   -7.9360   -6.7360 C.3     0  LIG0        0.2141
     17  O24       -6.4820   -7.0050   -7.7990 O.3     0  LIG0       -0.2176
     18  C40       -5.9190  -10.3170   -2.6840 C.3     0  LIG0        0.2406
     19  O28       -7.1820  -10.8590   -2.2810 O.3     0  LIG0       -0.2149
     20  C38       -5.2680   -9.5720   -1.5010 C.3     0  LIG0        0.2198
     21  O26       -4.9290  -10.5010   -0.4740 O.3     0  LIG0       -0.2174
     22  C42       -4.0310   -8.8210   -1.9490 C.3     0  LIG0        0.2144
     23  O30       -3.4300   -8.1260   -0.8780 O.3     0  LIG0       -0.2176
@<TRIPOS>BOND
     1    17    16    1
     2    13    12    1
     3    14    12    1
     4    14    15    1
     5    16    15    1
     6    12    10    1
     7    15     7    1
     8    10    11    1
     9    10     8    1
    10     7     8    1
    11     7     6    1
    12     1     2    1
    13     8     9    1
    14     4     5    1
    15     4     3    1
    16     5     6    1
    17     5    18    1
    18     2     3    1
    19     3    22    1
    20    18    19    1
    21    18    20    1
    22    22    20    1
    23    22    23    1
    24    20    21    1
