@<TRIPOS>MOLECULE
/Users/xuhangdai/Desktop/Projects/OptimalTransport/extra_bio_ligands_boltz_af3/boltz_results_8w4x_sugars/8w4x_sugars_model_40_chainC.pdb
 23 24 0 0 0
SMALL
GASTEIGER

@<TRIPOS>ATOM
      1  O23       -6.9000    3.5220   -0.7630 O.3     0  LIG0       -0.2176
      2  C34       -6.4120    4.4260    0.2100 C.3     0  LIG0        0.2142
      3  C44       -6.3110    5.8230   -0.3810 C.3     0  LIG0        0.1835
      4  O32       -7.6210    6.2810   -0.7450 O.3     0  LIG0       -0.3256
      5  C37       -7.7310    7.6090   -1.2690 C.3     0  LIG0        0.2695
      6  O31       -7.1870    7.6350   -2.5880 O.3     0  LIG0       -0.3257
      7  C43       -8.1440    7.7860   -3.6400 C.3     0  LIG0        0.1804
      8  C39       -7.6410    8.8210   -4.6140 C.3     0  LIG0        0.2168
      9  O27       -7.4860   10.0860   -3.9640 O.3     0  LIG0       -0.2175
     10  C41       -8.6060    8.9540   -5.7810 C.3     0  LIG0        0.2433
     11  O29       -8.0860    9.8330   -6.7540 O.3     0  LIG0       -0.2148
     12  C36       -8.8540    7.6030   -6.4310 C.3     0  LIG0        0.3023
     13  O25       -9.8200    7.7070   -7.4400 O.3     0  LIG0       -0.1869
     14  O33       -9.3220    6.6760   -5.4480 O.3     0  LIG0       -0.3237
     15  C45       -8.4070    6.4700   -4.3640 C.3     0  LIG0        0.1804
     16  C35       -8.9700    5.4160   -3.4300 C.3     0  LIG0        0.2141
     17  O24       -9.5660    4.3760   -4.1590 O.3     0  LIG0       -0.2176
     18  C40       -7.0030    8.6290   -0.4110 C.3     0  LIG0        0.2406
     19  O28       -6.9240    9.8690   -1.1140 O.3     0  LIG0       -0.2149
     20  C38       -5.5980    8.1700    0.0030 C.3     0  LIG0        0.2198
     21  O26       -5.0610    9.0830    0.9570 O.3     0  LIG0       -0.2174
     22  C42       -5.6330    6.7820    0.5960 C.3     0  LIG0        0.2144
     23  O30       -4.3310    6.3360    0.9000 O.3     0  LIG0       -0.2176
@<TRIPOS>BOND
     1    13    12    1
     2    11    10    1
     3    12    10    1
     4    12    14    1
     5    10     8    1
     6    14    15    1
     7     8     9    1
     8     8     7    1
     9    15     7    1
    10    15    16    1
    11    17    16    1
    12     7     6    1
    13     6     5    1
    14     5     4    1
    15     5    18    1
    16    19    18    1
    17     1     2    1
    18     4     3    1
    19    18    20    1
    20     3     2    1
    21     3    22    1
    22    20    22    1
    23    20    21    1
    24    22    23    1
