@<TRIPOS>MOLECULE
/Users/xuhangdai/Desktop/Projects/OptimalTransport/extra_bio_ligands_boltz_af3/boltz_results_8w4x_sugars/8w4x_sugars_model_32_chainC.pdb
 23 24 0 0 0
SMALL
GASTEIGER

@<TRIPOS>ATOM
      1  O23       -1.1710   -0.1190    8.7160 O.3     0  LIG0       -0.2176
      2  C34       -2.2040   -0.9080    8.1380 C.3     0  LIG0        0.2142
      3  C44       -2.3060   -2.2340    8.8760 C.3     0  LIG0        0.1835
      4  O32       -2.8090   -1.9980   10.2030 O.3     0  LIG0       -0.3256
      5  C37       -2.9680   -3.1510   11.0450 C.3     0  LIG0        0.2695
      6  O31       -1.6640   -3.5870   11.4170 O.3     0  LIG0       -0.3257
      7  C43       -1.2500   -3.2970   12.7670 C.3     0  LIG0        0.1804
      8  C39       -0.3820   -4.4380   13.2280 C.3     0  LIG0        0.2168
      9  O27       -1.1390   -5.6480   13.2490 O.3     0  LIG0       -0.2175
     10  C41        0.1850   -4.1450   14.6140 C.3     0  LIG0        0.2433
     11  O29        1.0890   -5.1580   15.0020 O.3     0  LIG0       -0.2148
     12  C36        0.9240   -2.8140   14.6300 C.3     0  LIG0        0.3023
     13  O25        1.3780   -2.5050   15.9190 O.3     0  LIG0       -0.1869
     14  O33        0.0370   -1.7780   14.2000 O.3     0  LIG0       -0.3237
     15  C45       -0.4910   -1.9660   12.8800 C.3     0  LIG0        0.1804
     16  C35       -1.3760   -0.7710   12.5730 C.3     0  LIG0        0.2141
     17  O24       -0.6400    0.4320   12.6850 O.3     0  LIG0       -0.2176
     18  C40       -3.7320   -4.2750   10.3440 C.3     0  LIG0        0.2406
     19  O28       -3.6050   -5.4810   11.0940 O.3     0  LIG0       -0.2149
     20  C38       -3.2670   -4.5180    8.8970 C.3     0  LIG0        0.2198
     21  O26       -4.1710   -5.4090    8.2490 O.3     0  LIG0       -0.2174
     22  C42       -3.1850   -3.2270    8.1180 C.3     0  LIG0        0.2144
     23  O30       -2.6720   -3.4500    6.8230 O.3     0  LIG0       -0.2176
@<TRIPOS>BOND
     1    23    22    1
     2    22     3    1
     3    22    20    1
     4     2     1    1
     5     2     3    1
     6    21    20    1
     7     3     4    1
     8    20    18    1
     9     4     5    1
    10    18     5    1
    11    18    19    1
    12     5     6    1
    13     6     7    1
    14    16    17    1
    15    16    15    1
    16     7    15    1
    17     7     8    1
    18    15    14    1
    19     8     9    1
    20     8    10    1
    21    14    12    1
    22    10    12    1
    23    10    11    1
    24    12    13    1
