@<TRIPOS>MOLECULE
/Users/xuhangdai/Desktop/Projects/OptimalTransport/extra_bio_ligands_boltz_af3/boltz_results_8w4x_sugars/8w4x_sugars_model_5_chainC.pdb
 23 24 0 0 0
SMALL
GASTEIGER

@<TRIPOS>ATOM
      1  O23        3.5870   -9.2430    1.1130 O.3     0  LIG0       -0.2176
      2  C34        2.4550   -9.1670    1.9540 C.3     0  LIG0        0.2142
      3  C44        1.4640  -10.2440    1.5790 C.3     0  LIG0        0.1835
      4  O32        2.0870  -11.5200    1.7640 O.3     0  LIG0       -0.3256
      5  C37        1.2850  -12.6360    1.3870 C.3     0  LIG0        0.2695
      6  O31        1.9320  -13.8410    1.6940 O.3     0  LIG0       -0.3257
      7  C43        3.0360  -14.2030    0.8560 C.3     0  LIG0        0.1804
      8  C39        4.3240  -14.0450    1.6630 C.3     0  LIG0        0.2168
      9  O27        4.5960  -12.6580    1.9020 O.3     0  LIG0       -0.2175
     10  C41        5.5020  -14.6860    0.9350 C.3     0  LIG0        0.2433
     11  O29        6.6580  -14.6690    1.7660 O.3     0  LIG0       -0.2148
     12  C36        5.1880  -16.1300    0.5530 C.3     0  LIG0        0.3023
     13  O25        6.2370  -16.7130   -0.1760 O.3     0  LIG0       -0.1869
     14  O33        3.9900  -16.1550   -0.2640 O.3     0  LIG0       -0.3237
     15  C45        2.8350  -15.6490    0.4090 C.3     0  LIG0        0.1804
     16  C35        1.6240  -15.7730   -0.5120 C.3     0  LIG0        0.2141
     17  O24        1.4060  -17.1240   -0.8840 O.3     0  LIG0       -0.2176
     18  C40       -0.0460  -12.6480    2.1350 C.3     0  LIG0        0.2406
     19  O28       -0.8760  -13.7100    1.6590 O.3     0  LIG0       -0.2149
     20  C38       -0.7740  -11.3030    1.9860 C.3     0  LIG0        0.2198
     21  O26       -1.9480  -11.3040    2.7980 O.3     0  LIG0       -0.2174
     22  C42        0.1520  -10.1740    2.3830 C.3     0  LIG0        0.2144
     23  O30       -0.4730   -8.9140    2.1790 O.3     0  LIG0       -0.2176
@<TRIPOS>BOND
     1    17    16    1
     2    16    15    1
     3    14    15    1
     4    14    12    1
     5    13    12    1
     6    15     7    1
     7    12    10    1
     8     7     8    1
     9     7     6    1
    10    10     8    1
    11    10    11    1
    12     1     2    1
    13     5     6    1
    14     5     4    1
    15     5    18    1
    16     3     4    1
    17     3     2    1
    18     3    22    1
    19    19    18    1
    20     8     9    1
    21    20    18    1
    22    20    22    1
    23    20    21    1
    24    23    22    1
