@<TRIPOS>MOLECULE
/Users/xuhangdai/Desktop/Projects/OptimalTransport/extra_bio_ligands_boltz_af3/boltz_results_8w4x_sugars/8w4x_sugars_model_31_chainC.pdb
 23 24 0 0 0
SMALL
GASTEIGER

@<TRIPOS>ATOM
      1  O23        5.5300   -2.1810   -4.9200 O.3     0  LIG0       -0.2176
      2  C34        4.3740   -2.9760   -5.1300 C.3     0  LIG0        0.2142
      3  C44        3.9010   -2.8180   -6.5680 C.3     0  LIG0        0.1835
      4  O32        4.9010   -3.3420   -7.4550 O.3     0  LIG0       -0.3256
      5  C37        4.6180   -3.2720   -8.8560 C.3     0  LIG0        0.2695
      6  O31        4.6800   -1.9010   -9.2610 O.3     0  LIG0       -0.3257
      7  C43        5.8340   -1.5330  -10.0320 C.3     0  LIG0        0.1804
      8  C39        5.3910   -0.6650  -11.1840 C.3     0  LIG0        0.2168
      9  O27        4.5080   -1.3970  -12.0370 O.3     0  LIG0       -0.2175
     10  C41        6.6050   -0.1860  -11.9770 C.3     0  LIG0        0.2433
     11  O29        6.2070    0.7200  -12.9900 O.3     0  LIG0       -0.2148
     12  C36        7.6040    0.5160  -11.0700 C.3     0  LIG0        0.3023
     13  O25        8.7660    0.8690  -11.7790 O.3     0  LIG0       -0.1869
     14  O33        7.9760   -0.3610  -10.0010 O.3     0  LIG0       -0.3237
     15  C45        6.8710   -0.7880   -9.1890 C.3     0  LIG0        0.1804
     16  C35        7.4170   -1.6550   -8.0660 C.3     0  LIG0        0.2141
     17  O24        8.3750   -0.9420   -7.3210 O.3     0  LIG0       -0.2176
     18  C40        3.2450   -3.8380   -9.1890 C.3     0  LIG0        0.2406
     19  O28        2.9050   -3.4850  -10.5320 O.3     0  LIG0       -0.2149
     20  C38        2.1470   -3.3460   -8.2330 C.3     0  LIG0        0.2198
     21  O26        0.9460   -4.0770   -8.4770 O.3     0  LIG0       -0.2174
     22  C42        2.5560   -3.5070   -6.7910 C.3     0  LIG0        0.2144
     23  O30        1.5810   -2.9740   -5.9300 O.3     0  LIG0       -0.2176
@<TRIPOS>BOND
     1    11    10    1
     2     9     8    1
     3    10     8    1
     4    10    12    1
     5    13    12    1
     6     8     7    1
     7    12    14    1
     8    19    18    1
     9     7     6    1
    10     7    15    1
    11    14    15    1
    12     6     5    1
    13    15    16    1
    14    18     5    1
    15    18    20    1
    16     5     4    1
    17    21    20    1
    18    20    22    1
    19    16    17    1
    20     4     3    1
    21    22     3    1
    22    22    23    1
    23     3     2    1
    24     2     1    1
