@<TRIPOS>MOLECULE
/Users/xuhangdai/Desktop/Projects/OptimalTransport/extra_bio_ligands_boltz_af3/boltz_results_8w4x_sugars/8w4x_sugars_model_46_chainC.pdb
 23 24 0 0 0
SMALL
GASTEIGER

@<TRIPOS>ATOM
      1  O23       -4.7050    9.4910   -3.3630 O.3     0  LIG0       -0.2176
      2  C34       -4.8200    9.2490   -1.9660 C.3     0  LIG0        0.2142
      3  C44       -4.4460   10.5100   -1.1960 C.3     0  LIG0        0.1835
      4  O32       -5.4700   11.5030   -1.3840 O.3     0  LIG0       -0.3256
      5  C37       -5.2790   12.7620   -0.7170 C.3     0  LIG0        0.2695
      6  O31       -4.2290   13.4450   -1.4070 O.3     0  LIG0       -0.3257
      7  C43       -4.6100   14.5660   -2.2320 C.3     0  LIG0        0.1804
      8  C39       -3.4480   15.5260   -2.2560 C.3     0  LIG0        0.2168
      9  O27       -3.1740   15.9900   -0.9280 O.3     0  LIG0       -0.2175
     10  C41       -3.7560   16.7070   -3.1770 C.3     0  LIG0        0.2433
     11  O29       -2.6290   17.5600   -3.2900 O.3     0  LIG0       -0.2148
     12  C36       -4.1340   16.2250   -4.5720 C.3     0  LIG0        0.3023
     13  O25       -4.4980   17.3040   -5.3990 O.3     0  LIG0       -0.1869
     14  O33       -5.2440   15.3260   -4.4800 O.3     0  LIG0       -0.3237
     15  C45       -4.9910   14.1630   -3.6720 C.3     0  LIG0        0.1804
     16  C35       -6.2370   13.2890   -3.7250 C.3     0  LIG0        0.2141
     17  O24       -6.5230   12.9200   -5.0630 O.3     0  LIG0       -0.2176
     18  C40       -4.9350   12.5850    0.7630 C.3     0  LIG0        0.2406
     19  O28       -4.4680   13.8280    1.2970 O.3     0  LIG0       -0.2149
     20  C38       -3.8820   11.4900    1.0120 C.3     0  LIG0        0.2198
     21  O26       -3.7840   11.2360    2.4130 O.3     0  LIG0       -0.2174
     22  C42       -4.2380   10.2080    0.2900 C.3     0  LIG0        0.2144
     23  O30       -3.2310    9.2360    0.4610 O.3     0  LIG0       -0.2176
@<TRIPOS>BOND
     1    13    12    1
     2    17    16    1
     3    12    14    1
     4    12    10    1
     5    14    15    1
     6    16    15    1
     7    15     7    1
     8     1     2    1
     9    11    10    1
    10    10     8    1
    11     8     7    1
    12     8     9    1
    13     7     6    1
    14     2     3    1
    15     6     5    1
    16     4     3    1
    17     4     5    1
    18     3    22    1
    19     5    18    1
    20    22    23    1
    21    22    20    1
    22    18    20    1
    23    18    19    1
    24    20    21    1
