@<TRIPOS>MOLECULE
/Users/xuhangdai/Desktop/Projects/OptimalTransport/extra_bio_ligands_boltz_af3/boltz_results_8w4x_sugars/8w4x_sugars_model_6_chainC.pdb
 23 24 0 0 0
SMALL
GASTEIGER

@<TRIPOS>ATOM
      1  O23        8.6520   -0.3330    0.2140 O.3     0  LIG0       -0.2176
      2  C34        8.4470   -1.5510   -0.4790 C.3     0  LIG0        0.2142
      3  C44        8.8980   -1.3970   -1.9110 C.3     0  LIG0        0.1835
      4  O32       10.2890   -1.0840   -1.9070 O.3     0  LIG0       -0.3256
      5  C37       10.8360   -0.8360   -3.1920 C.3     0  LIG0        0.2695
      6  O31       12.2150   -0.6340   -3.0780 O.3     0  LIG0       -0.3257
      7  C43       12.6120    0.6460   -2.5900 C.3     0  LIG0        0.1804
      8  C39       13.2070    0.4790   -1.1950 C.3     0  LIG0        0.2168
      9  O27       12.1810    0.1290   -0.2540 O.3     0  LIG0       -0.2175
     10  C41       13.8990    1.7600   -0.7470 C.3     0  LIG0        0.2433
     11  O29       14.5800    1.5400    0.4820 O.3     0  LIG0       -0.2148
     12  C36       14.9090    2.2180   -1.7960 C.3     0  LIG0        0.3023
     13  O25       15.5030    3.4360   -1.4370 O.3     0  LIG0       -0.1869
     14  O33       14.2300    2.4000   -3.0620 O.3     0  LIG0       -0.3237
     15  C45       13.6380    1.2030   -3.5630 C.3     0  LIG0        0.1804
     16  C35       12.9990    1.4780   -4.9210 C.3     0  LIG0        0.2141
     17  O24       13.9830    1.7820   -5.8890 O.3     0  LIG0       -0.2176
     18  C40       10.6250   -2.0140   -4.1350 C.3     0  LIG0        0.2406
     19  O28       11.0810   -1.6830   -5.4450 O.3     0  LIG0       -0.2149
     20  C38        9.1500   -2.4170   -4.1790 C.3     0  LIG0        0.2198
     21  O26        9.0080   -3.5960   -4.9640 O.3     0  LIG0       -0.2174
     22  C42        8.6440   -2.6440   -2.7750 C.3     0  LIG0        0.2144
     23  O30        7.2630   -2.9530   -2.7830 O.3     0  LIG0       -0.2176
@<TRIPOS>BOND
     1    17    16    1
     2    19    18    1
     3    21    20    1
     4    16    15    1
     5    20    18    1
     6    20    22    1
     7    18     5    1
     8    15    14    1
     9    15     7    1
    10     5     6    1
    11     5     4    1
    12     6     7    1
    13    14    12    1
    14    23    22    1
    15    22     3    1
    16     7     8    1
    17     3     4    1
    18     3     2    1
    19    12    13    1
    20    12    10    1
    21     8    10    1
    22     8     9    1
    23    10    11    1
    24     2     1    1
