@<TRIPOS>MOLECULE
/Users/xuhangdai/Desktop/Projects/OptimalTransport/extra_bio_ligands_boltz_af3/boltz_results_8w4x_sugars/8w4x_sugars_model_24_chainC.pdb
 23 24 0 0 0
SMALL
GASTEIGER

@<TRIPOS>ATOM
      1  O23        4.9900    3.5230    5.5540 O.3     0  LIG0       -0.2176
      2  C34        5.8240    3.0220    4.5190 C.3     0  LIG0        0.2142
      3  C44        6.7000    4.1430    3.9830 C.3     0  LIG0        0.1835
      4  O32        7.6100    4.5600    5.0080 O.3     0  LIG0       -0.3256
      5  C37        8.5370    5.5960    4.6740 C.3     0  LIG0        0.2695
      6  O31        7.8100    6.8140    4.5820 O.3     0  LIG0       -0.3257
      7  C43        8.0190    7.7540    5.6460 C.3     0  LIG0        0.1804
      8  C39        7.9970    9.1410    5.0620 C.3     0  LIG0        0.2168
      9  O27        9.0530    9.2900    4.1120 O.3     0  LIG0       -0.2175
     10  C41        8.1420   10.1740    6.1710 C.3     0  LIG0        0.2433
     11  O29        8.0120   11.4800    5.6520 O.3     0  LIG0       -0.2148
     12  C36        7.0760    9.9790    7.2350 C.3     0  LIG0        0.3023
     13  O25        7.2630   10.8740    8.2990 O.3     0  LIG0       -0.1869
     14  O33        7.1540    8.6450    7.7410 O.3     0  LIG0       -0.3237
     15  C45        6.9610    7.6390    6.7450 C.3     0  LIG0        0.1804
     16  C35        6.9980    6.2900    7.4390 C.3     0  LIG0        0.2141
     17  O24        5.8870    6.1570    8.3010 O.3     0  LIG0       -0.2176
     18  C40        9.2630    5.3170    3.3640 C.3     0  LIG0        0.2406
     19  O28        9.9340    6.5020    2.9320 O.3     0  LIG0       -0.2149
     20  C38        8.3290    4.8260    2.2510 C.3     0  LIG0        0.2198
     21  O26        9.1060    4.3770    1.1460 O.3     0  LIG0       -0.2174
     22  C42        7.4450    3.7060    2.7280 C.3     0  LIG0        0.2144
     23  O30        6.5290    3.3250    1.7250 O.3     0  LIG0       -0.2176
@<TRIPOS>BOND
     1    21    20    1
     2    23    22    1
     3    20    22    1
     4    20    18    1
     5    22     3    1
     6    19    18    1
     7    18     5    1
     8     3     2    1
     9     3     4    1
    10     9     8    1
    11     2     1    1
    12     6     5    1
    13     6     7    1
    14     5     4    1
    15     8     7    1
    16     8    10    1
    17     7    15    1
    18    11    10    1
    19    10    12    1
    20    15    16    1
    21    15    14    1
    22    12    14    1
    23    12    13    1
    24    16    17    1
