@<TRIPOS>MOLECULE
/Users/xuhangdai/Desktop/Projects/OptimalTransport/extra_bio_ligands_boltz_af3/boltz_results_8w4x_sugars/8w4x_sugars_model_17_chainB.pdb
 12 12 0 0 0
SMALL
GASTEIGER

@<TRIPOS>ATOM
      1  O13       -1.9150  -10.8930    3.5320 O.3     0  LIG0       -0.2176
      2  C19       -2.3640   -9.5650    3.3810 C.3     0  LIG0        0.2142
      3  C24       -3.7970   -9.5450    2.8930 C.3     0  LIG0        0.1836
      4  O18       -3.8380  -10.1040    1.5610 O.3     0  LIG0       -0.3236
      5  C20       -5.1520  -10.0610    0.9830 C.3     0  LIG0        0.3024
      6  O14       -5.0740  -10.5970   -0.3200 O.3     0  LIG0       -0.1869
      7  C22       -6.1510  -10.8360    1.8310 C.3     0  LIG0        0.2434
      8  O16       -7.4400  -10.7150    1.2540 O.3     0  LIG0       -0.2148
      9  C21       -6.1600  -10.3150    3.2700 C.3     0  LIG0        0.2199
     10  O15       -7.0070  -11.1320    4.0550 O.3     0  LIG0       -0.2174
     11  C23       -4.7440  -10.3100    3.8360 C.3     0  LIG0        0.2144
     12  O17       -4.7170   -9.7300    5.1230 O.3     0  LIG0       -0.2176
@<TRIPOS>BOND
     1     6     5    1
     2     5     4    1
     3     5     7    1
     4     8     7    1
     5     4     3    1
     6     7     9    1
     7     3     2    1
     8     3    11    1
     9     9    11    1
    10     9    10    1
    11     2     1    1
    12    11    12    1
