@<TRIPOS>MOLECULE
/Users/xuhangdai/Desktop/Projects/OptimalTransport/extra_bio_ligands_boltz_af3/boltz_results_8w4x_sugars/8w4x_sugars_model_26_chainB.pdb
 12 12 0 0 0
SMALL
GASTEIGER

@<TRIPOS>ATOM
      1  O13       -4.0440    2.4800    3.8670 O.3     0  LIG0       -0.2176
      2  C19       -4.1520    2.0600    2.5230 C.3     0  LIG0        0.2142
      3  C24       -5.2690    1.0470    2.3760 C.3     0  LIG0        0.1836
      4  O18       -4.9770   -0.0900    3.2150 O.3     0  LIG0       -0.3236
      5  C20       -5.9580   -1.1360    3.1090 C.3     0  LIG0        0.3024
      6  O14       -5.5510   -2.2000    3.9400 O.3     0  LIG0       -0.1869
      7  C22       -7.3460   -0.6310    3.5020 C.3     0  LIG0        0.2434
      8  O16       -8.2870   -1.6810    3.3390 O.3     0  LIG0       -0.2148
      9  C21       -7.7350    0.5820    2.6570 C.3     0  LIG0        0.2199
     10  O15       -8.9680    1.0990    3.1160 O.3     0  LIG0       -0.2174
     11  C23       -6.6460    1.6510    2.7280 C.3     0  LIG0        0.2144
     12  O17       -6.9340    2.7180    1.8560 O.3     0  LIG0       -0.2176
@<TRIPOS>BOND
     1    12    11    1
     2     3     2    1
     3     3    11    1
     4     3     4    1
     5     2     1    1
     6     9    11    1
     7     9    10    1
     8     9     7    1
     9     5     4    1
    10     5     7    1
    11     5     6    1
    12     8     7    1
