@<TRIPOS>MOLECULE
/Users/xuhangdai/Desktop/Projects/OptimalTransport/extra_bio_ligands_boltz_af3/boltz_results_8w4x_sugars/8w4x_sugars_model_15_chainB.pdb
 12 12 0 0 0
SMALL
GASTEIGER

@<TRIPOS>ATOM
      1  O13       -1.3300   -1.5660   -7.2130 O.3     0  LIG0       -0.2176
      2  C19       -0.4910   -1.4910   -6.0590 C.3     0  LIG0        0.2142
      3  C24        0.8610   -0.9290   -6.4240 C.3     0  LIG0        0.1836
      4  O18        0.6780    0.3790   -7.0080 O.3     0  LIG0       -0.3236
      5  C20        1.9090    0.9780   -7.4320 C.3     0  LIG0        0.3024
      6  O14        1.6260    2.2330   -8.0150 O.3     0  LIG0       -0.1869
      7  C22        2.8900    1.1270   -6.2790 C.3     0  LIG0        0.2434
      8  O16        4.1130    1.6510   -6.7800 O.3     0  LIG0       -0.2148
      9  C21        3.1200   -0.2200   -5.6030 C.3     0  LIG0        0.2199
     10  O15        3.9390   -0.0390   -4.4580 O.3     0  LIG0       -0.2174
     11  C23        1.7940   -0.8530   -5.2120 C.3     0  LIG0        0.2144
     12  O17        2.0020   -2.1430   -4.6890 O.3     0  LIG0       -0.2176
@<TRIPOS>BOND
     1     6     5    1
     2     5     4    1
     3     5     7    1
     4     1     2    1
     5     4     3    1
     6     8     7    1
     7     3     2    1
     8     3    11    1
     9     7     9    1
    10     9    11    1
    11     9    10    1
    12    11    12    1
