@<TRIPOS>MOLECULE
/Users/xuhangdai/Desktop/Projects/OptimalTransport/extra_bio_ligands_boltz_af3/boltz_results_8w4x_sugars/8w4x_sugars_model_14_chainB.pdb
 12 12 0 0 0
SMALL
GASTEIGER

@<TRIPOS>ATOM
      1  O13       -0.9180  -10.9070   -3.5320 O.3     0  LIG0       -0.2176
      2  C19       -0.8410   -9.5890   -4.0500 C.3     0  LIG0        0.2142
      3  C24        0.6050   -9.1390   -4.1590 C.3     0  LIG0        0.1836
      4  O18        1.2430   -9.3180   -2.8710 O.3     0  LIG0       -0.3236
      5  C20        2.6120   -8.8730   -2.8530 C.3     0  LIG0        0.3024
      6  O14        3.1180   -9.0600   -1.5480 O.3     0  LIG0       -0.1869
      7  C22        3.4500   -9.6360   -3.8800 C.3     0  LIG0        0.2434
      8  O16        4.7810   -9.1410   -3.8480 O.3     0  LIG0       -0.2148
      9  C21        2.8470   -9.4880   -5.2790 C.3     0  LIG0        0.2199
     10  O15        3.5800  -10.2840   -6.1950 O.3     0  LIG0       -0.2174
     11  C23        1.3740   -9.9070   -5.2620 C.3     0  LIG0        0.2144
     12  O17        0.7710   -9.6680   -6.5130 O.3     0  LIG0       -0.2176
@<TRIPOS>BOND
     1    12    11    1
     2    10     9    1
     3     9    11    1
     4     9     7    1
     5    11     3    1
     6     3     2    1
     7     3     4    1
     8     2     1    1
     9     7     8    1
    10     7     5    1
    11     4     5    1
    12     5     6    1
