@<TRIPOS>MOLECULE
/Users/xuhangdai/Desktop/Projects/OptimalTransport/extra_bio_ligands_boltz_af3/boltz_results_8w4x_sugars/8w4x_sugars_model_17_chainC.pdb
 23 24 0 0 0
SMALL
GASTEIGER

@<TRIPOS>ATOM
      1  O23       -5.8490   -6.4680   -7.3230 O.3     0  LIG0       -0.2176
      2  C34       -6.4250   -7.2460   -6.2930 C.3     0  LIG0        0.2142
      3  C44       -7.9350   -7.2860   -6.4550 C.3     0  LIG0        0.1835
      4  O32       -8.2560   -7.9490   -7.6890 O.3     0  LIG0       -0.3256
      5  C37       -9.6450   -8.1090   -8.0010 C.3     0  LIG0        0.2695
      6  O31      -10.1920   -6.8280   -8.3330 O.3     0  LIG0       -0.3257
      7  C43      -10.4640   -6.6220   -9.7300 C.3     0  LIG0        0.1804
      8  C39      -11.8210   -5.9790   -9.8820 C.3     0  LIG0        0.2168
      9  O27      -12.8340   -6.8210   -9.3240 O.3     0  LIG0       -0.2175
     10  C41      -12.1090   -5.7220  -11.3560 C.3     0  LIG0        0.2433
     11  O29      -13.3290   -5.0240  -11.5080 O.3     0  LIG0       -0.2148
     12  C36      -11.0030   -4.8910  -11.9950 C.3     0  LIG0        0.3023
     13  O25      -11.2090   -4.7700  -13.3800 O.3     0  LIG0       -0.1869
     14  O33       -9.7320   -5.5290  -11.7830 O.3     0  LIG0       -0.3237
     15  C45       -9.4080   -5.7460  -10.4030 C.3     0  LIG0        0.1804
     16  C35       -8.0240   -6.3750  -10.3300 C.3     0  LIG0        0.2141
     17  O24       -7.0380   -5.4000  -10.5960 O.3     0  LIG0       -0.2176
     18  C40      -10.4230   -8.7050   -6.8340 C.3     0  LIG0        0.2406
     19  O28      -11.8220   -8.5930   -7.0960 O.3     0  LIG0       -0.2149
     20  C38      -10.0920   -8.0430   -5.4880 C.3     0  LIG0        0.2198
     21  O26      -10.6990   -8.7850   -4.4310 O.3     0  LIG0       -0.2174
     22  C42       -8.6030   -7.9690   -5.2640 C.3     0  LIG0        0.2144
     23  O30       -8.3130   -7.2700   -4.0690 O.3     0  LIG0       -0.2176
@<TRIPOS>BOND
     1    13    12    1
     2    12    14    1
     3    12    10    1
     4    14    15    1
     5    11    10    1
     6    10     8    1
     7    17    16    1
     8    15    16    1
     9    15     7    1
    10     8     7    1
    11     8     9    1
    12     7     6    1
    13     6     5    1
    14     5     4    1
    15     5    18    1
    16     4     3    1
    17     1     2    1
    18    19    18    1
    19    18    20    1
    20     3     2    1
    21     3    22    1
    22    20    22    1
    23    20    21    1
    24    22    23    1
