@<TRIPOS>MOLECULE
/Users/xuhangdai/Desktop/Projects/OptimalTransport/extra_bio_ligands_boltz_af3/boltz_results_8w4x_sugars/8w4x_sugars_model_18_chainC.pdb
 23 24 0 0 0
SMALL
GASTEIGER

@<TRIPOS>ATOM
      1  O23       -1.8590    6.4330   -3.9910 O.3     0  LIG0       -0.2176
      2  C34       -2.7730    5.3720   -3.8700 C.3     0  LIG0        0.2142
      3  C44       -3.3720    5.0390   -5.2310 C.3     0  LIG0        0.1835
      4  O32       -3.9650    6.2170   -5.7870 O.3     0  LIG0       -0.3256
      5  C37       -4.6130    6.0770   -7.0500 C.3     0  LIG0        0.2695
      6  O31       -5.8040    5.3150   -6.8420 O.3     0  LIG0       -0.3257
      7  C43       -7.0380    6.0580   -6.8040 C.3     0  LIG0        0.1804
      8  C39       -8.1100    5.2360   -7.4660 C.3     0  LIG0        0.2168
      9  O27       -7.7630    4.9800   -8.8250 O.3     0  LIG0       -0.2175
     10  C41       -9.4480    5.9620   -7.3850 C.3     0  LIG0        0.2433
     11  O29      -10.4800    5.1620   -7.9140 O.3     0  LIG0       -0.2148
     12  C36       -9.7940    6.3070   -5.9480 C.3     0  LIG0        0.3023
     13  O25      -10.9770    7.0580   -5.8810 O.3     0  LIG0       -0.1869
     14  O33       -8.7380    7.0780   -5.3800 O.3     0  LIG0       -0.3237
     15  C45       -7.4680    6.4170   -5.3770 C.3     0  LIG0        0.1804
     16  C35       -6.4720    7.3280   -4.6870 C.3     0  LIG0        0.2141
     17  O24       -6.9630    7.7190   -3.4260 O.3     0  LIG0       -0.2176
     18  C40       -3.7160    5.3920   -8.0760 C.3     0  LIG0        0.2406
     19  O28       -4.4890    5.0260   -9.2200 O.3     0  LIG0       -0.2149
     20  C38       -3.0070    4.1500   -7.5190 C.3     0  LIG0        0.2198
     21  O26       -2.0400    3.6900   -8.4510 O.3     0  LIG0       -0.2174
     22  C42       -2.3400    4.4450   -6.1970 C.3     0  LIG0        0.2144
     23  O30       -1.7670    3.2850   -5.6520 O.3     0  LIG0       -0.2176
@<TRIPOS>BOND
     1    19    18    1
     2     9     8    1
     3    21    20    1
     4    18    20    1
     5    18     5    1
     6    11    10    1
     7    20    22    1
     8     8    10    1
     9     8     7    1
    10    10    12    1
    11     5     6    1
    12     5     4    1
    13     6     7    1
    14     7    15    1
    15    22    23    1
    16    22     3    1
    17    12    13    1
    18    12    14    1
    19     4     3    1
    20    14    15    1
    21    15    16    1
    22     3     2    1
    23    16    17    1
    24     1     2    1
