@<TRIPOS>MOLECULE
/Users/xuhangdai/Desktop/Projects/OptimalTransport/extra_bio_ligands_boltz_af3/boltz_results_8w4x_sugars/8w4x_sugars_model_27_chainB.pdb
 12 12 0 0 0
SMALL
GASTEIGER

@<TRIPOS>ATOM
      1  O13        0.9070    7.9610    4.6940 O.3     0  LIG0       -0.2176
      2  C19        0.4820    6.6130    4.7430 C.3     0  LIG0        0.2142
      3  C24        1.3460    5.8170    5.7050 C.3     0  LIG0        0.1836
      4  O18        2.7280    5.9250    5.2840 O.3     0  LIG0       -0.3236
      5  C20        3.6290    5.1630    6.1060 C.3     0  LIG0        0.3024
      6  O14        4.9340    5.3210    5.5890 O.3     0  LIG0       -0.1869
      7  C22        3.5590    5.6140    7.5620 C.3     0  LIG0        0.2434
      8  O16        4.4370    4.8110    8.3420 O.3     0  LIG0       -0.2148
      9  C21        2.1250    5.5190    8.0880 C.3     0  LIG0        0.2199
     10  O15        2.0700    6.0300    9.4080 O.3     0  LIG0       -0.2174
     11  C23        1.1800    6.2920    7.1650 C.3     0  LIG0        0.2144
     12  O17       -0.1600    6.1340    7.5730 O.3     0  LIG0       -0.2176
@<TRIPOS>BOND
     1     1     2    1
     2     2     3    1
     3     4     3    1
     4     4     5    1
     5     6     5    1
     6     3    11    1
     7     5     7    1
     8    11    12    1
     9    11     9    1
    10     7     9    1
    11     7     8    1
    12     9    10    1
