@<TRIPOS>MOLECULE
/Users/xuhangdai/Desktop/Projects/OptimalTransport/extra_bio_ligands_boltz_af3/boltz_results_8w4x_sugars/8w4x_sugars_model_37_chainB.pdb
 12 12 0 0 0
SMALL
GASTEIGER

@<TRIPOS>ATOM
      1  O13       -2.7330   -4.9770   -5.9860 O.3     0  LIG0       -0.2176
      2  C19       -3.2110   -3.9760   -5.1000 C.3     0  LIG0        0.2142
      3  C24       -4.7170   -4.0010   -5.0580 C.3     0  LIG0        0.1836
      4  O18       -5.1450   -5.3160   -4.6330 O.3     0  LIG0       -0.3236
      5  C20       -6.5710   -5.4540   -4.6080 C.3     0  LIG0        0.3024
      6  O14       -6.8810   -6.7760   -4.2280 O.3     0  LIG0       -0.1869
      7  C22       -7.2150   -4.4340   -3.6700 C.3     0  LIG0        0.2434
      8  O16       -8.6280   -4.5710   -3.7180 O.3     0  LIG0       -0.2148
      9  C21       -6.7970   -3.0200   -4.0670 C.3     0  LIG0        0.2199
     10  O15       -7.3190   -2.0920   -3.1330 O.3     0  LIG0       -0.2174
     11  C23       -5.2780   -2.9150   -4.1330 C.3     0  LIG0        0.2144
     12  O17       -4.8870   -1.6430   -4.6000 O.3     0  LIG0       -0.2176
@<TRIPOS>BOND
     1     1     2    1
     2     2     3    1
     3     3     4    1
     4     3    11    1
     5     4     5    1
     6     5     6    1
     7     5     7    1
     8    12    11    1
     9    11     9    1
    10     9     7    1
    11     9    10    1
    12     8     7    1
