@<TRIPOS>MOLECULE
/Users/xuhangdai/Desktop/Projects/OptimalTransport/extra_bio_ligands_boltz_af3/boltz_results_8w4x_sugars/8w4x_sugars_model_16_chainC.pdb
 23 24 0 0 0
SMALL
GASTEIGER

@<TRIPOS>ATOM
      1  O23        2.0360   -1.7180    7.8310 O.3     0  LIG0       -0.2176
      2  C34        3.3930   -1.6260    7.4320 C.3     0  LIG0        0.2142
      3  C44        4.0830   -0.5540    8.2410 C.3     0  LIG0        0.1835
      4  O32        4.0650   -0.9440    9.6180 O.3     0  LIG0       -0.3256
      5  C37        4.6380    0.0110   10.5070 C.3     0  LIG0        0.2695
      6  O31        4.6540   -0.4950   11.8120 O.3     0  LIG0       -0.3257
      7  C43        3.4020   -0.4950   12.5040 C.3     0  LIG0        0.1804
      8  C39        2.9270   -1.9380   12.6550 C.3     0  LIG0        0.2168
      9  O27        2.5480   -2.4760   11.3810 O.3     0  LIG0       -0.2175
     10  C41        1.7490   -2.0240   13.6290 C.3     0  LIG0        0.2433
     11  O29        1.4120   -3.3820   13.8710 O.3     0  LIG0       -0.2148
     12  C36        2.1010   -1.3540   14.9530 C.3     0  LIG0        0.3023
     13  O25        1.0160   -1.3630   15.8460 O.3     0  LIG0       -0.1869
     14  O33        2.4760    0.0220   14.7040 O.3     0  LIG0       -0.3237
     15  C45        3.6260    0.1550   13.8630 C.3     0  LIG0        0.1804
     16  C35        3.9690    1.6320   13.7080 C.3     0  LIG0        0.2141
     17  O24        4.3120    2.2070   14.9520 O.3     0  LIG0       -0.2176
     18  C40        6.0830    0.3320   10.1290 C.3     0  LIG0        0.2406
     19  O28        6.5980    1.3620   10.9750 O.3     0  LIG0       -0.2149
     20  C38        6.1780    0.7560    8.6590 C.3     0  LIG0        0.2198
     21  O26        7.5470    0.9340    8.3030 O.3     0  LIG0       -0.2174
     22  C42        5.5320   -0.2940    7.7830 C.3     0  LIG0        0.2144
     23  O30        5.5450    0.1050    6.4230 O.3     0  LIG0       -0.2176
@<TRIPOS>BOND
     1    23    22    1
     2     2     1    1
     3     2     3    1
     4    22     3    1
     5    22    20    1
     6     3     4    1
     7    21    20    1
     8    20    18    1
     9     4     5    1
    10    18     5    1
    11    18    19    1
    12     5     6    1
    13     9     8    1
    14     6     7    1
    15     7     8    1
    16     7    15    1
    17     8    10    1
    18    10    11    1
    19    10    12    1
    20    16    15    1
    21    16    17    1
    22    15    14    1
    23    14    12    1
    24    12    13    1
