@<TRIPOS>MOLECULE
/Users/xuhangdai/Desktop/Projects/OptimalTransport/extra_bio_ligands_boltz_af3/boltz_results_8w4x_sugars/8w4x_sugars_model_46_chainB.pdb
 12 12 0 0 0
SMALL
GASTEIGER

@<TRIPOS>ATOM
      1  O13       -4.9440   -0.2920    5.8190 O.3     0  LIG0       -0.2176
      2  C19       -3.6410    0.0090    5.3450 C.3     0  LIG0        0.2142
      3  C24       -3.3490    1.4850    5.5250 C.3     0  LIG0        0.1836
      4  O18       -4.3480    2.2460    4.8040 O.3     0  LIG0       -0.3236
      5  C20       -4.1430    3.6670    4.8810 C.3     0  LIG0        0.3024
      6  O14       -5.1510    4.2980    4.1200 O.3     0  LIG0       -0.1869
      7  C22       -4.1710    4.1440    6.3300 C.3     0  LIG0        0.2434
      8  O16       -3.9430    5.5430    6.3600 O.3     0  LIG0       -0.2148
      9  C21       -3.1200    3.3990    7.1560 C.3     0  LIG0        0.2199
     10  O15       -3.2210    3.7920    8.5120 O.3     0  LIG0       -0.2174
     11  C23       -3.3170    1.8890    7.0160 C.3     0  LIG0        0.2144
     12  O17       -2.2930    1.1860    7.6790 O.3     0  LIG0       -0.2176
@<TRIPOS>BOND
     1     6     5    1
     2     4     5    1
     3     4     3    1
     4     5     7    1
     5     2     3    1
     6     2     1    1
     7     3    11    1
     8     7     8    1
     9     7     9    1
    10    11     9    1
    11    11    12    1
    12     9    10    1
