@<TRIPOS>MOLECULE
/Users/xuhangdai/Desktop/Projects/OptimalTransport/extra_bio_ligands_boltz_af3/boltz_results_8w4x_sugars/8w4x_sugars_model_33_chainC.pdb
 23 24 0 0 0
SMALL
GASTEIGER

@<TRIPOS>ATOM
      1  O23       -8.6250   -3.5110    3.3470 O.3     0  LIG0       -0.2176
      2  C34       -8.5610   -2.5070    4.3520 C.3     0  LIG0        0.2142
      3  C44       -9.8760   -1.7410    4.3840 C.3     0  LIG0        0.1835
      4  O32      -10.9160   -2.6070    4.8550 O.3     0  LIG0       -0.3256
      5  C37      -12.2300   -2.0520    4.9460 C.3     0  LIG0        0.2695
      6  O31      -12.7310   -1.9440    3.6220 O.3     0  LIG0       -0.3257
      7  C43      -13.7610   -2.8780    3.2650 C.3     0  LIG0        0.1804
      8  C39      -14.7480   -2.1670    2.3780 C.3     0  LIG0        0.2168
      9  O27      -15.3390   -1.0750    3.0820 O.3     0  LIG0       -0.2175
     10  C41      -15.8280   -3.1380    1.9150 C.3     0  LIG0        0.2433
     11  O29      -16.6980   -2.5070    0.9940 O.3     0  LIG0       -0.2148
     12  C36      -15.2120   -4.3500    1.2330 C.3     0  LIG0        0.3023
     13  O25      -16.1990   -5.2860    0.8900 O.3     0  LIG0       -0.1869
     14  O33      -14.2850   -4.9760    2.1230 O.3     0  LIG0       -0.3237
     15  C45      -13.2160   -4.1190    2.5460 C.3     0  LIG0        0.1804
     16  C35      -12.2860   -4.9320    3.4300 C.3     0  LIG0        0.2141
     17  O24      -11.8640   -6.1030    2.7600 O.3     0  LIG0       -0.2176
     18  C40      -12.2570   -0.6890    5.6340 C.3     0  LIG0        0.2406
     19  O28      -13.5100   -0.0570    5.3850 O.3     0  LIG0       -0.2149
     20  C38      -11.1090    0.2280    5.1880 C.3     0  LIG0        0.2198
     21  O26      -11.0700    1.3840    6.0250 O.3     0  LIG0       -0.2174
     22  C42       -9.7870   -0.4920    5.2490 C.3     0  LIG0        0.2144
     23  O30       -8.7290    0.3360    4.8350 O.3     0  LIG0       -0.2176
@<TRIPOS>BOND
     1    13    12    1
     2    11    10    1
     3    12    10    1
     4    12    14    1
     5    10     8    1
     6    14    15    1
     7     8     9    1
     8     8     7    1
     9    15     7    1
    10    15    16    1
    11    17    16    1
    12     7     6    1
    13     1     2    1
    14     6     5    1
    15     2     3    1
    16     3     4    1
    17     3    22    1
    18    23    22    1
    19     4     5    1
    20     5    18    1
    21    20    22    1
    22    20    18    1
    23    20    21    1
    24    19    18    1
