@<TRIPOS>MOLECULE
/Users/xuhangdai/Desktop/Projects/OptimalTransport/extra_bio_ligands_boltz_af3/boltz_results_8w4x_sugars/8w4x_sugars_model_44_chainC.pdb
 23 24 0 0 0
SMALL
GASTEIGER

@<TRIPOS>ATOM
      1  O23       -2.5050    8.4570   -2.5120 O.3     0  LIG0       -0.2176
      2  C34       -3.8410    7.9670   -2.5560 C.3     0  LIG0        0.2142
      3  C44       -4.7100    8.7940   -1.6220 C.3     0  LIG0        0.1835
      4  O32       -4.8620   10.1100   -2.1610 O.3     0  LIG0       -0.3256
      5  C37       -5.6740   11.0370   -1.4330 C.3     0  LIG0        0.2695
      6  O31       -4.8860   11.5220   -0.3540 O.3     0  LIG0       -0.3257
      7  C43       -4.4380   12.8810   -0.4760 C.3     0  LIG0        0.1804
      8  C39       -4.3430   13.4690    0.9080 C.3     0  LIG0        0.2168
      9  O27       -5.6240   13.4540    1.5380 O.3     0  LIG0       -0.2175
     10  C41       -3.7990   14.8910    0.8430 C.3     0  LIG0        0.2433
     11  O29       -3.5960   15.4090    2.1410 O.3     0  LIG0       -0.2148
     12  C36       -2.4710   14.9350    0.0990 C.3     0  LIG0        0.3023
     13  O25       -2.0120   16.2580   -0.0430 O.3     0  LIG0       -0.1869
     14  O33       -2.6400   14.3690   -1.2050 O.3     0  LIG0       -0.3237
     15  C45       -3.0840   13.0080   -1.1930 C.3     0  LIG0        0.1804
     16  C35       -3.1320   12.5320   -2.6340 C.3     0  LIG0        0.2141
     17  O24       -1.8640   12.6770   -3.2470 O.3     0  LIG0       -0.2176
     18  C40       -6.9840   10.4390   -0.9210 C.3     0  LIG0        0.2406
     19  O28       -7.5340   11.2660    0.1050 O.3     0  LIG0       -0.2149
     20  C38       -6.8450    9.0010   -0.4090 C.3     0  LIG0        0.2198
     21  O26       -8.1390    8.4440   -0.2010 O.3     0  LIG0       -0.2174
     22  C42       -6.0690    8.1490   -1.3830 C.3     0  LIG0        0.2144
     23  O30       -5.9280    6.8250   -0.9200 O.3     0  LIG0       -0.2176
@<TRIPOS>BOND
     1    17    16    1
     2    16    15    1
     3     2     1    1
     4     2     3    1
     5     4     3    1
     6     4     5    1
     7     3    22    1
     8     5    18    1
     9     5     6    1
    10    22    23    1
    11    22    20    1
    12    14    15    1
    13    14    12    1
    14    15     7    1
    15    18    20    1
    16    18    19    1
    17     7     6    1
    18     7     8    1
    19    20    21    1
    20    13    12    1
    21    12    10    1
    22    10     8    1
    23    10    11    1
    24     8     9    1
