@<TRIPOS>MOLECULE
/Users/xuhangdai/Desktop/Projects/OptimalTransport/extra_bio_ligands_boltz_af3/boltz_results_8w4x_sugars/8w4x_sugars_model_0_chainB.pdb
 12 12 0 0 0
SMALL
GASTEIGER

@<TRIPOS>ATOM
      1  O13       -0.8360    7.2080   -6.1060 O.3     0  LIG0       -0.2176
      2  C19       -0.4710    5.8670   -5.8050 C.3     0  LIG0        0.2142
      3  C24       -1.6300    4.9210   -6.0880 C.3     0  LIG0        0.1836
      4  O18       -2.7390    5.2820   -5.2280 O.3     0  LIG0       -0.3236
      5  C20       -3.8640    4.3960   -5.3730 C.3     0  LIG0        0.3024
      6  O14       -4.8660    4.7880   -4.4510 O.3     0  LIG0       -0.1869
      7  C22       -4.3940    4.4300   -6.8040 C.3     0  LIG0        0.2434
      8  O16       -5.4940    3.5340   -6.9080 O.3     0  LIG0       -0.2148
      9  C21       -3.2820    4.0550   -7.7910 C.3     0  LIG0        0.2199
     10  O15       -3.7700    4.1960   -9.1160 O.3     0  LIG0       -0.2174
     11  C23       -2.0580    4.9450   -7.5730 C.3     0  LIG0        0.2144
     12  O17       -0.9840    4.5280   -8.3840 O.3     0  LIG0       -0.2176
@<TRIPOS>BOND
     1    10     9    1
     2    12    11    1
     3     9    11    1
     4     9     7    1
     5    11     3    1
     6     8     7    1
     7     7     5    1
     8     1     2    1
     9     3     2    1
    10     3     4    1
    11     5     4    1
    12     5     6    1
