@<TRIPOS>MOLECULE
/Users/xuhangdai/Desktop/Projects/OptimalTransport/extra_bio_ligands_boltz_af3/boltz_results_8w4x_sugars/8w4x_sugars_model_47_chainB.pdb
 12 12 0 0 0
SMALL
GASTEIGER

@<TRIPOS>ATOM
      1  O13        5.7720    8.2890    2.3470 O.3     0  LIG0       -0.2176
      2  C19        6.0010    7.1150    1.5890 C.3     0  LIG0        0.2142
      3  C24        6.0200    7.4480    0.1080 C.3     0  LIG0        0.1836
      4  O18        4.7820    8.1160   -0.2290 O.3     0  LIG0       -0.3236
      5  C20        4.6830    8.4260   -1.6260 C.3     0  LIG0        0.3024
      6  O14        3.4280    9.0320   -1.8450 O.3     0  LIG0       -0.1869
      7  C22        5.8200    9.3380   -2.0720 C.3     0  LIG0        0.2434
      8  O16        5.7010    9.5910   -3.4630 O.3     0  LIG0       -0.2148
      9  C21        7.1720    8.7010   -1.7540 C.3     0  LIG0        0.2199
     10  O15        8.2090    9.6040   -2.0830 O.3     0  LIG0       -0.2174
     11  C23        7.2330    8.3160   -0.2780 C.3     0  LIG0        0.2144
     12  O17        8.4260    7.6250    0.0110 O.3     0  LIG0       -0.2176
@<TRIPOS>BOND
     1     8     7    1
     2    10     9    1
     3     7     9    1
     4     7     5    1
     5     6     5    1
     6     9    11    1
     7     5     4    1
     8    11    12    1
     9    11     3    1
    10     4     3    1
    11     3     2    1
    12     2     1    1
