@<TRIPOS>MOLECULE
/Users/xuhangdai/Desktop/Projects/OptimalTransport/extra_bio_ligands_boltz_af3/boltz_results_8w4x_sugars/8w4x_sugars_model_19_chainC.pdb
 23 24 0 0 0
SMALL
GASTEIGER

@<TRIPOS>ATOM
      1  O23       -1.1780   -6.6950    5.4490 O.3     0  LIG0       -0.2176
      2  C34       -2.3860   -6.0520    5.8190 C.3     0  LIG0        0.2142
      3  C44       -3.5610   -6.8590    5.3160 C.3     0  LIG0        0.1835
      4  O32       -3.5360   -8.1390    5.9530 O.3     0  LIG0       -0.3256
      5  C37       -4.5690   -9.0280    5.5330 C.3     0  LIG0        0.2695
      6  O31       -4.5190  -10.2140    6.2700 O.3     0  LIG0       -0.3257
      7  C43       -3.5130  -11.1500    5.8740 C.3     0  LIG0        0.1804
      8  C39       -2.4460  -11.2000    6.9630 C.3     0  LIG0        0.2168
      9  O27       -1.6910   -9.9790    6.9770 O.3     0  LIG0       -0.2175
     10  C41       -1.5090  -12.3870    6.7420 C.3     0  LIG0        0.2433
     11  O29       -0.6070  -12.5050    7.8380 O.3     0  LIG0       -0.2148
     12  C36       -2.3090  -13.6830    6.6090 C.3     0  LIG0        0.3023
     13  O25       -1.4660  -14.7790    6.3540 O.3     0  LIG0       -0.1869
     14  O33       -3.2440  -13.5530    5.5090 O.3     0  LIG0       -0.3237
     15  C45       -4.1950  -12.5000    5.6890 C.3     0  LIG0        0.1804
     16  C35       -5.1420  -12.4640    4.4880 C.3     0  LIG0        0.2141
     17  O24       -5.9050  -13.6560    4.4050 O.3     0  LIG0       -0.2176
     18  C40       -5.9530   -8.4270    5.7500 C.3     0  LIG0        0.2406
     19  O28       -6.9600   -9.2980    5.2270 O.3     0  LIG0       -0.2149
     20  C38       -6.0550   -7.0500    5.0850 C.3     0  LIG0        0.2198
     21  O26       -7.3140   -6.4600    5.4010 O.3     0  LIG0       -0.2174
     22  C42       -4.9190   -6.1720    5.5620 C.3     0  LIG0        0.2144
     23  O30       -4.9470   -4.9160    4.8910 O.3     0  LIG0       -0.2176
@<TRIPOS>BOND
     1    17    16    1
     2    16    15    1
     3    23    22    1
     4    20    21    1
     5    20    22    1
     6    20    18    1
     7    19    18    1
     8     3    22    1
     9     3     2    1
    10     3     4    1
    11     1     2    1
    12    14    15    1
    13    14    12    1
    14     5    18    1
    15     5     4    1
    16     5     6    1
    17    15     7    1
    18     7     6    1
    19     7     8    1
    20    13    12    1
    21    12    10    1
    22    10     8    1
    23    10    11    1
    24     8     9    1
