@<TRIPOS>MOLECULE
/Users/xuhangdai/Desktop/Projects/OptimalTransport/extra_bio_ligands_boltz_af3/boltz_results_8w4x_sugars/8w4x_sugars_model_21_chainB.pdb
 12 12 0 0 0
SMALL
GASTEIGER

@<TRIPOS>ATOM
      1  O13        4.8010   -7.0670    1.5030 O.3     0  LIG0       -0.2176
      2  C19        4.6770   -5.7450    1.9920 C.3     0  LIG0        0.2142
      3  C24        4.2010   -5.7670    3.4310 C.3     0  LIG0        0.1836
      4  O18        3.0120   -6.5840    3.5170 O.3     0  LIG0       -0.3236
      5  C20        2.4440   -6.6140    4.8350 C.3     0  LIG0        0.3024
      6  O14        1.2740   -7.4080    4.7880 O.3     0  LIG0       -0.1869
      7  C22        3.4420   -7.1710    5.8460 C.3     0  LIG0        0.2434
      8  O16        2.8610   -7.1400    7.1400 O.3     0  LIG0       -0.2148
      9  C21        4.7390   -6.3620    5.8190 C.3     0  LIG0        0.2199
     10  O15        5.6820   -6.9620    6.6860 O.3     0  LIG0       -0.2174
     11  C23        5.2840   -6.2890    4.3950 C.3     0  LIG0        0.2144
     12  O17        6.4210   -5.4570    4.3360 O.3     0  LIG0       -0.2176
@<TRIPOS>BOND
     1     1     2    1
     2     2     3    1
     3     3     4    1
     4     3    11    1
     5     4     5    1
     6    12    11    1
     7    11     9    1
     8     6     5    1
     9     5     7    1
    10     9     7    1
    11     9    10    1
    12     7     8    1
