@<TRIPOS>MOLECULE
/Users/xuhangdai/Desktop/Projects/OptimalTransport/extra_bio_ligands_boltz_af3/boltz_results_8w4x_sugars/8w4x_sugars_model_30_chainB.pdb
 12 12 0 0 0
SMALL
GASTEIGER

@<TRIPOS>ATOM
      1  O13        5.7710    8.4140   -1.1040 O.3     0  LIG0       -0.2176
      2  C19        6.0670    7.0760   -0.7230 C.3     0  LIG0        0.2142
      3  C24        6.6760    6.3150   -1.8910 C.3     0  LIG0        0.1836
      4  O18        5.7390    6.3440   -2.9970 O.3     0  LIG0       -0.3236
      5  C20        6.2000    5.6140   -4.1540 C.3     0  LIG0        0.3024
      6  O14        5.1960    5.6800   -5.1530 O.3     0  LIG0       -0.1869
      7  C22        7.5230    6.1820   -4.6690 C.3     0  LIG0        0.2434
      8  O16        7.9480    5.4100   -5.7900 O.3     0  LIG0       -0.2148
      9  C21        8.5790    6.1730   -3.5560 C.3     0  LIG0        0.2199
     10  O15        9.7640    6.7980   -4.0230 O.3     0  LIG0       -0.2174
     11  C23        8.0500    6.8940   -2.3100 C.3     0  LIG0        0.2144
     12  O17        8.9630    6.7840   -1.2380 O.3     0  LIG0       -0.2176
@<TRIPOS>BOND
     1     8     7    1
     2     6     5    1
     3     7     5    1
     4     7     9    1
     5     5     4    1
     6    10     9    1
     7     9    11    1
     8     4     3    1
     9    11     3    1
    10    11    12    1
    11     3     2    1
    12     1     2    1
