@<TRIPOS>MOLECULE
/Users/xuhangdai/Desktop/Projects/OptimalTransport/extra_bio_ligands_boltz_af3/boltz_results_8w4x_sugars/8w4x_sugars_model_1_chainB.pdb
 12 12 0 0 0
SMALL
GASTEIGER

@<TRIPOS>ATOM
      1  O13       -6.7290   -4.4970   -7.8780 O.3     0  LIG0       -0.2176
      2  C19       -6.5060   -3.5480   -6.8570 C.3     0  LIG0        0.2142
      3  C24       -6.2260   -2.1810   -7.4470 C.3     0  LIG0        0.1836
      4  O18       -4.9690   -2.2330   -8.1570 O.3     0  LIG0       -0.3236
      5  C20       -4.5850   -0.9580   -8.6910 C.3     0  LIG0        0.3024
      6  O14       -3.3350   -1.1030   -9.3240 O.3     0  LIG0       -0.1869
      7  C22       -5.6290   -0.4320   -9.6640 C.3     0  LIG0        0.2434
      8  O16       -5.2240    0.8510  -10.1180 O.3     0  LIG0       -0.2148
      9  C21       -7.0040   -0.3610   -8.9960 C.3     0  LIG0        0.2199
     10  O15       -7.9740    0.0200   -9.9560 O.3     0  LIG0       -0.2174
     11  C23       -7.3580   -1.7080   -8.3760 C.3     0  LIG0        0.2144
     12  O17       -8.5660   -1.6340   -7.6610 O.3     0  LIG0       -0.2176
@<TRIPOS>BOND
     1     8     7    1
     2    10     9    1
     3     7     9    1
     4     7     5    1
     5     6     5    1
     6     9    11    1
     7     5     4    1
     8    11    12    1
     9    11     3    1
    10     4     3    1
    11     1     2    1
    12     3     2    1
