@<TRIPOS>MOLECULE
/Users/xuhangdai/Desktop/Projects/OptimalTransport/extra_bio_ligands_boltz_af3/boltz_results_8w4x_sugars/8w4x_sugars_model_16_chainB.pdb
 12 12 0 0 0
SMALL
GASTEIGER

@<TRIPOS>ATOM
      1  O13        9.2130   -0.7540   -2.7740 O.3     0  LIG0       -0.2176
      2  C19        8.3960    0.4010   -2.7370 C.3     0  LIG0        0.2142
      3  C24        9.0190    1.4680   -1.8590 C.3     0  LIG0        0.1836
      4  O18        9.1600    0.9400   -0.5160 O.3     0  LIG0       -0.3236
      5  C20        9.6860    1.9070    0.4120 C.3     0  LIG0        0.3024
      6  O14        9.7380    1.3060    1.6890 O.3     0  LIG0       -0.1869
      7  C22       11.0700    2.3910   -0.0280 C.3     0  LIG0        0.2434
      8  O16       11.5340    3.3700    0.8990 O.3     0  LIG0       -0.2148
      9  C21       11.0110    2.9630   -1.4470 C.3     0  LIG0        0.2199
     10  O15       12.3210    3.3090   -1.8720 O.3     0  LIG0       -0.2174
     11  C23       10.3840    1.9470   -2.4050 C.3     0  LIG0        0.2144
     12  O17       10.2210    2.4990   -3.6860 O.3     0  LIG0       -0.2176
@<TRIPOS>BOND
     1    12    11    1
     2     1     2    1
     3     2     3    1
     4    11     3    1
     5    11     9    1
     6    10     9    1
     7     3     4    1
     8     9     7    1
     9     4     5    1
    10     7     5    1
    11     7     8    1
    12     5     6    1
