@<TRIPOS>MOLECULE
/Users/xuhangdai/Desktop/Projects/OptimalTransport/extra_bio_ligands_boltz_af3/boltz_results_8w4x_sugars/8w4x_sugars_model_39_chainC.pdb
 23 24 0 0 0
SMALL
GASTEIGER

@<TRIPOS>ATOM
      1  O23       -7.7880    4.6830   -1.3880 O.3     0  LIG0       -0.2176
      2  C34       -8.0970    3.4460   -2.0030 C.3     0  LIG0        0.2142
      3  C44       -9.1020    2.6960   -1.1660 C.3     0  LIG0        0.1835
      4  O32      -10.2800    3.4870   -1.0720 O.3     0  LIG0       -0.3256
      5  C37      -11.2930    2.9300   -0.2500 C.3     0  LIG0        0.2695
      6  O31      -12.4180    3.7440   -0.2740 O.3     0  LIG0       -0.3257
      7  C43      -12.3370    4.9310    0.5130 C.3     0  LIG0        0.1804
      8  C39      -12.2660    6.1390   -0.4160 C.3     0  LIG0        0.2168
      9  O27      -11.0020    6.1740   -1.0900 O.3     0  LIG0       -0.2175
     10  C41      -12.4730    7.4320    0.3660 C.3     0  LIG0        0.2433
     11  O29      -12.5470    8.5360   -0.5270 O.3     0  LIG0       -0.2148
     12  C36      -13.7590    7.3630    1.1860 C.3     0  LIG0        0.3023
     13  O25      -13.9430    8.5200    1.9610 O.3     0  LIG0       -0.1869
     14  O33      -13.6920    6.2210    2.0730 O.3     0  LIG0       -0.3237
     15  C45      -13.5760    4.9740    1.3890 C.3     0  LIG0        0.1804
     16  C35      -13.5500    3.8360    2.4040 C.3     0  LIG0        0.2141
     17  O24      -14.7710    3.7470    3.1030 O.3     0  LIG0       -0.2176
     18  C40      -11.7110    1.5460   -0.7340 C.3     0  LIG0        0.2406
     19  O28      -12.6650    0.9720    0.1570 O.3     0  LIG0       -0.2149
     20  C38      -10.4900    0.6300   -0.8610 C.3     0  LIG0        0.2198
     21  O26      -10.8870   -0.6180   -1.4190 O.3     0  LIG0       -0.2174
     22  C42       -9.4460    1.3020   -1.7250 C.3     0  LIG0        0.2144
     23  O30       -8.2770    0.5090   -1.8020 O.3     0  LIG0       -0.2176
@<TRIPOS>BOND
     1     2     1    1
     2     2     3    1
     3    23    22    1
     4    22     3    1
     5    22    20    1
     6    21    20    1
     7     3     4    1
     8     9     8    1
     9     4     5    1
    10    20    18    1
    11    18     5    1
    12    18    19    1
    13    11    10    1
    14     8    10    1
    15     8     7    1
    16     6     5    1
    17     6     7    1
    18    10    12    1
    19     7    15    1
    20    12    13    1
    21    12    14    1
    22    15    14    1
    23    15    16    1
    24    16    17    1
