@<TRIPOS>MOLECULE
/Users/xuhangdai/Desktop/Projects/OptimalTransport/extra_bio_ligands_boltz_af3/boltz_results_8w4x_sugars/8w4x_sugars_model_12_chainC.pdb
 23 24 0 0 0
SMALL
GASTEIGER

@<TRIPOS>ATOM
      1  O23       -5.7000   -6.3840   -1.7050 O.3     0  LIG0       -0.2176
      2  C34       -4.3330   -6.3290   -2.0260 C.3     0  LIG0        0.2142
      3  C44       -4.1280   -6.6130   -3.5140 C.3     0  LIG0        0.1835
      4  O32       -4.5750   -7.9450   -3.8160 O.3     0  LIG0       -0.3256
      5  C37       -4.4330   -8.3860   -5.1710 C.3     0  LIG0        0.2695
      6  O31       -3.0440   -8.6360   -5.4120 O.3     0  LIG0       -0.3257
      7  C43       -2.6630  -10.0270   -5.4100 C.3     0  LIG0        0.1804
      8  C39       -1.7460  -10.2920   -6.5800 C.3     0  LIG0        0.2168
      9  O27       -2.4140  -10.0040   -7.8090 O.3     0  LIG0       -0.2175
     10  C41       -1.2820  -11.7490   -6.5620 C.3     0  LIG0        0.2433
     11  O29       -0.3320  -11.9770   -7.5810 O.3     0  LIG0       -0.2148
     12  C36       -0.6500  -12.1140   -5.2210 C.3     0  LIG0        0.3023
     13  O25       -0.3440  -13.4850   -5.1690 O.3     0  LIG0       -0.1869
     14  O33       -1.5610  -11.8110   -4.1560 O.3     0  LIG0       -0.3237
     15  C45       -1.9640  -10.4340   -4.1080 C.3     0  LIG0        0.1804
     16  C35       -2.8500  -10.2380   -2.8830 C.3     0  LIG0        0.2141
     17  O24       -2.0530  -10.2930   -1.7180 O.3     0  LIG0       -0.2176
     18  C40       -4.9510   -7.3710   -6.1860 C.3     0  LIG0        0.2406
     19  O28       -4.4940   -7.7230   -7.4950 O.3     0  LIG0       -0.2149
     20  C38       -4.5400   -5.9230   -5.8610 C.3     0  LIG0        0.2198
     21  O26       -5.2260   -5.0180   -6.7200 O.3     0  LIG0       -0.2174
     22  C42       -4.8380   -5.5910   -4.4150 C.3     0  LIG0        0.2144
     23  O30       -4.4460   -4.2780   -4.0900 O.3     0  LIG0       -0.2176
@<TRIPOS>BOND
     1     9     8    1
     2    11    10    1
     3    19    18    1
     4    21    20    1
     5     8    10    1
     6     8     7    1
     7    10    12    1
     8    18    20    1
     9    18     5    1
    10    20    22    1
    11     6     7    1
    12     6     5    1
    13     7    15    1
    14    12    13    1
    15    12    14    1
    16     5     4    1
    17    22    23    1
    18    22     3    1
    19    14    15    1
    20    15    16    1
    21     4     3    1
    22     3     2    1
    23    16    17    1
    24     2     1    1
