@<TRIPOS>MOLECULE
/Users/xuhangdai/Desktop/Projects/OptimalTransport/extra_bio_ligands_boltz_af3/boltz_results_8w4x_sugars/8w4x_sugars_model_25_chainB.pdb
 12 12 0 0 0
SMALL
GASTEIGER

@<TRIPOS>ATOM
      1  O13       -2.9910    7.4860   -5.5900 O.3     0  LIG0       -0.2176
      2  C19       -2.2370    6.2910   -5.4960 C.3     0  LIG0        0.2142
      3  C24       -3.0160    5.1350   -6.0960 C.3     0  LIG0        0.1836
      4  O18       -4.2850    5.0290   -5.4050 O.3     0  LIG0       -0.3236
      5  C20       -5.0890    3.9390   -5.8730 C.3     0  LIG0        0.3024
      6  O14       -6.2710    3.9090   -5.1070 O.3     0  LIG0       -0.1869
      7  C22       -5.3950    4.0770   -7.3580 C.3     0  LIG0        0.2434
      8  O16       -6.1660    2.9630   -7.7770 O.3     0  LIG0       -0.2148
      9  C21       -4.0960    4.1760   -8.1650 C.3     0  LIG0        0.2199
     10  O15       -4.4000    4.3970   -9.5270 O.3     0  LIG0       -0.2174
     11  C23       -3.2220    5.3010   -7.6150 C.3     0  LIG0        0.2144
     12  O17       -1.9740    5.3310   -8.2650 O.3     0  LIG0       -0.2176
@<TRIPOS>BOND
     1    10     9    1
     2    12    11    1
     3     9    11    1
     4     9     7    1
     5     8     7    1
     6    11     3    1
     7     7     5    1
     8     3     2    1
     9     3     4    1
    10     5     4    1
    11     5     6    1
    12     1     2    1
