@<TRIPOS>MOLECULE
/Users/xuhangdai/Desktop/Projects/OptimalTransport/extra_bio_ligands_boltz_af3/boltz_results_8w4x_sugars/8w4x_sugars_model_30_chainC.pdb
 23 24 0 0 0
SMALL
GASTEIGER

@<TRIPOS>ATOM
      1  O23        1.8890   -0.0340  -10.0880 O.3     0  LIG0       -0.2176
      2  C34        2.8580    0.9510   -9.7330 C.3     0  LIG0        0.2142
      3  C44        4.2050    0.5970  -10.3510 C.3     0  LIG0        0.1835
      4  O32        4.1220    0.7260  -11.7800 O.3     0  LIG0       -0.3256
      5  C37        5.3060    0.4330  -12.5380 C.3     0  LIG0        0.2695
      6  O31        5.4580   -0.9850  -12.5620 O.3     0  LIG0       -0.3257
      7  C43        5.1430   -1.6290  -13.8110 C.3     0  LIG0        0.1804
      8  C39        6.1140   -2.7740  -14.0100 C.3     0  LIG0        0.2168
      9  O27        7.4580   -2.2780  -14.0600 O.3     0  LIG0       -0.2175
     10  C41        5.7770   -3.5350  -15.2950 C.3     0  LIG0        0.2433
     11  O29        6.6090   -4.6730  -15.4350 O.3     0  LIG0       -0.2148
     12  C36        4.3190   -3.9990  -15.2940 C.3     0  LIG0        0.3023
     13  O25        3.9840   -4.6150  -16.5150 O.3     0  LIG0       -0.1869
     14  O33        3.4550   -2.8680  -15.0950 O.3     0  LIG0       -0.3237
     15  C45        3.6940   -2.1530  -13.8680 C.3     0  LIG0        0.1804
     16  C35        2.6660   -1.0330  -13.7770 C.3     0  LIG0        0.2141
     17  O24        1.3520   -1.5610  -13.8310 O.3     0  LIG0       -0.2176
     18  C40        6.5620    1.1010  -11.9640 C.3     0  LIG0        0.2406
     19  O28        7.7320    0.5070  -12.5340 O.3     0  LIG0       -0.2149
     20  C38        6.6430    1.0430  -10.4250 C.3     0  LIG0        0.2198
     21  O26        7.7030    1.8900   -9.9700 O.3     0  LIG0       -0.2174
     22  C42        5.3330    1.4700   -9.7930 C.3     0  LIG0        0.2144
     23  O30        5.3870    1.3890   -8.3840 O.3     0  LIG0       -0.2176
@<TRIPOS>BOND
     1    13    12    1
     2    11    10    1
     3    10    12    1
     4    10     8    1
     5    12    14    1
     6    14    15    1
     7     9     8    1
     8     8     7    1
     9    15     7    1
    10    15    16    1
    11    17    16    1
    12     7     6    1
    13     6     5    1
    14     5    18    1
    15     5     4    1
    16    19    18    1
    17    18    20    1
    18     4     3    1
    19    20    21    1
    20    20    22    1
    21     3    22    1
    22     3     2    1
    23     1     2    1
    24    22    23    1
