@<TRIPOS>MOLECULE
/Users/xuhangdai/Desktop/Projects/OptimalTransport/extra_bio_ligands_boltz_af3/boltz_results_8w4x_sugars/8w4x_sugars_model_35_chainB.pdb
 12 12 0 0 0
SMALL
GASTEIGER

@<TRIPOS>ATOM
      1  O13       -2.8480    8.0860    0.4820 O.3     0  LIG0       -0.2176
      2  C19       -1.7140    7.2470    0.4250 C.3     0  LIG0        0.2142
      3  C24       -1.3010    7.0210   -1.0120 C.3     0  LIG0        0.1836
      4  O18       -2.4360    6.5140   -1.7410 O.3     0  LIG0       -0.3236
      5  C20       -2.1330    6.2090   -3.1090 C.3     0  LIG0        0.3024
      6  O14       -3.2960    5.6880   -3.7100 O.3     0  LIG0       -0.1869
      7  C22       -1.6420    7.4470   -3.8480 C.3     0  LIG0        0.2434
      8  O16       -1.3210    7.0950   -5.1820 O.3     0  LIG0       -0.2148
      9  C21       -0.4330    8.0510   -3.1380 C.3     0  LIG0        0.2199
     10  O15       -0.0590    9.2510   -3.7830 O.3     0  LIG0       -0.2174
     11  C23       -0.7560    8.3040   -1.6690 C.3     0  LIG0        0.2144
     12  O17        0.3790    8.7500   -0.9730 O.3     0  LIG0       -0.2176
@<TRIPOS>BOND
     1     8     7    1
     2     7     9    1
     3     7     5    1
     4    10     9    1
     5     6     5    1
     6     9    11    1
     7     5     4    1
     8     4     3    1
     9    11     3    1
    10    11    12    1
    11     3     2    1
    12     2     1    1
