@<TRIPOS>MOLECULE
/Users/xuhangdai/Desktop/Projects/OptimalTransport/extra_bio_ligands_boltz_af3/boltz_results_8w4x_sugars/8w4x_sugars_model_22_chainB.pdb
 12 12 0 0 0
SMALL
GASTEIGER

@<TRIPOS>ATOM
      1  O13        2.6450   -4.5510    8.5730 O.3     0  LIG0       -0.2176
      2  C19        1.4820   -4.0400    7.9260 C.3     0  LIG0        0.2142
      3  C24        0.9010   -5.0720    6.9720 C.3     0  LIG0        0.1836
      4  O18        1.9050   -5.3970    5.9790 O.3     0  LIG0       -0.3236
      5  C20        1.4380   -6.3390    4.9930 C.3     0  LIG0        0.3024
      6  O14        2.4700   -6.5410    4.0520 O.3     0  LIG0       -0.1869
      7  C22        1.0290   -7.6530    5.6540 C.3     0  LIG0        0.2434
      8  O16        0.5710   -8.5540    4.6560 O.3     0  LIG0       -0.2148
      9  C21       -0.0580   -7.4010    6.7050 C.3     0  LIG0        0.2199
     10  O15       -0.3670   -8.6170    7.3670 O.3     0  LIG0       -0.2174
     11  C23        0.4200   -6.3440    7.7100 C.3     0  LIG0        0.2144
     12  O17       -0.6130   -6.0120    8.6110 O.3     0  LIG0       -0.2176
@<TRIPOS>BOND
     1     6     5    1
     2     8     7    1
     3     5     7    1
     4     5     4    1
     5     7     9    1
     6     4     3    1
     7     9    10    1
     8     9    11    1
     9     3    11    1
    10     3     2    1
    11    11    12    1
    12     2     1    1
