@<TRIPOS>MOLECULE
/Users/xuhangdai/Desktop/Projects/OptimalTransport/extra_bio_ligands_boltz_af3/boltz_results_8w4x_sugars/8w4x_sugars_model_23_chainC.pdb
 23 24 0 0 0
SMALL
GASTEIGER

@<TRIPOS>ATOM
      1  O23        7.5250    5.9040   -4.4540 O.3     0  LIG0       -0.2176
      2  C34        6.9190    5.3690   -5.6170 C.3     0  LIG0        0.2142
      3  C44        6.2200    6.4730   -6.3930 C.3     0  LIG0        0.1835
      4  O32        7.1990    7.3380   -6.9850 O.3     0  LIG0       -0.3256
      5  C37        6.7110    8.4370   -7.7650 C.3     0  LIG0        0.2695
      6  O31        6.1830    9.4200   -6.8780 O.3     0  LIG0       -0.3257
      7  C43        7.0300   10.5600   -6.6850 C.3     0  LIG0        0.1804
      8  C39        6.2330   11.8230   -6.9130 C.3     0  LIG0        0.2168
      9  O27        5.6820   11.8390   -8.2290 O.3     0  LIG0       -0.2175
     10  C41        7.1220   13.0410   -6.6900 C.3     0  LIG0        0.2433
     11  O29        6.3640   14.2290   -6.7870 O.3     0  LIG0       -0.2148
     12  C36        7.7860   12.9960   -5.3170 C.3     0  LIG0        0.3023
     13  O25        8.7100   14.0410   -5.1660 O.3     0  LIG0       -0.1869
     14  O33        8.4860   11.7530   -5.1480 O.3     0  LIG0       -0.3237
     15  C45        7.6380   10.6060   -5.2760 C.3     0  LIG0        0.1804
     16  C35        8.4320    9.3550   -4.9300 C.3     0  LIG0        0.2141
     17  O24        9.6010    9.2590   -5.7140 O.3     0  LIG0       -0.2176
     18  C40        5.6360    8.0170   -8.7650 C.3     0  LIG0        0.2406
     19  O28        4.9810    9.1710   -9.2790 O.3     0  LIG0       -0.2149
     20  C38        4.5990    7.0500   -8.1740 C.3     0  LIG0        0.2198
     21  O26        3.7650    6.5420   -9.2120 O.3     0  LIG0       -0.2174
     22  C42        5.2730    5.9100   -7.4530 C.3     0  LIG0        0.2144
     23  O30        4.3270    5.0430   -6.8690 O.3     0  LIG0       -0.2176
@<TRIPOS>BOND
     1    19    18    1
     2    21    20    1
     3    18    20    1
     4    18     5    1
     5     9     8    1
     6    20    22    1
     7     5     4    1
     8     5     6    1
     9    22    23    1
    10    22     3    1
    11     4     3    1
    12     8    10    1
    13     8     7    1
    14     6     7    1
    15    11    10    1
    16    10    12    1
    17     7    15    1
    18     3     2    1
    19    17    16    1
    20     2     1    1
    21    12    13    1
    22    12    14    1
    23    15    14    1
    24    15    16    1
