@<TRIPOS>MOLECULE
/Users/xuhangdai/Desktop/Projects/OptimalTransport/extra_bio_ligands_boltz_af3/boltz_results_8w4x_sugars/8w4x_sugars_model_15_chainC.pdb
 23 24 0 0 0
SMALL
GASTEIGER

@<TRIPOS>ATOM
      1  O23        6.5700   -3.6040    4.0960 O.3     0  LIG0       -0.2176
      2  C34        6.7440   -3.3450    2.7110 C.3     0  LIG0        0.2142
      3  C44        7.6330   -2.1380    2.5340 C.3     0  LIG0        0.1835
      4  O32        8.9060   -2.4300    3.1100 O.3     0  LIG0       -0.3256
      5  C37        9.8240   -1.3450    3.0730 C.3     0  LIG0        0.2695
      6  O31       11.0620   -1.7360    3.5920 O.3     0  LIG0       -0.3257
      7  C43       11.1130   -1.8870    5.0130 C.3     0  LIG0        0.1804
      8  C39       11.2390   -3.3740    5.3320 C.3     0  LIG0        0.2168
      9  O27       10.0210   -4.0610    5.0170 O.3     0  LIG0       -0.2175
     10  C41       11.5800   -3.5810    6.8030 C.3     0  LIG0        0.2433
     11  O29       11.8450   -4.9560    7.0530 O.3     0  LIG0       -0.2148
     12  C36       12.8060   -2.7630    7.1930 C.3     0  LIG0        0.3023
     13  O25       13.0950   -2.8890    8.5580 O.3     0  LIG0       -0.1869
     14  O33       12.5500   -1.3660    6.9060 O.3     0  LIG0       -0.3237
     15  C45       12.3130   -1.1040    5.5230 C.3     0  LIG0        0.1804
     16  C35       12.1120    0.3950    5.3200 C.3     0  LIG0        0.2141
     17  O24       13.2750    1.1080    5.6890 O.3     0  LIG0       -0.2176
     18  C40       10.0650   -0.8600    1.6490 C.3     0  LIG0        0.2406
     19  O28       10.9090    0.2890    1.6560 O.3     0  LIG0       -0.2149
     20  C38        8.7370   -0.5380    0.9600 C.3     0  LIG0        0.2198
     21  O26        8.9850   -0.2080   -0.4040 O.3     0  LIG0       -0.2174
     22  C42        7.8070   -1.7240    1.0630 C.3     0  LIG0        0.2144
     23  O30        6.5460   -1.4200    0.4970 O.3     0  LIG0       -0.2176
@<TRIPOS>BOND
     1    21    20    1
     2    23    22    1
     3    20    22    1
     4    20    18    1
     5    22     3    1
     6    18    19    1
     7    18     5    1
     8     3     2    1
     9     3     4    1
    10     2     1    1
    11     5     4    1
    12     5     6    1
    13     6     7    1
    14     7     8    1
    15     7    15    1
    16     9     8    1
    17    16    15    1
    18    16    17    1
    19     8    10    1
    20    15    14    1
    21    10    11    1
    22    10    12    1
    23    14    12    1
    24    12    13    1
