@<TRIPOS>MOLECULE
/Users/xuhangdai/Desktop/Projects/OptimalTransport/extra_bio_ligands_boltz_af3/boltz_results_8w4x_sugars/8w4x_sugars_model_5_chainB.pdb
 12 12 0 0 0
SMALL
GASTEIGER

@<TRIPOS>ATOM
      1  O13       -4.3240   -0.4070    5.6060 O.3     0  LIG0       -0.2176
      2  C19       -4.5360   -0.3820    4.2020 C.3     0  LIG0        0.2142
      3  C24       -5.3970   -1.5560    3.7760 C.3     0  LIG0        0.1836
      4  O18       -4.7690   -2.7840    4.2220 O.3     0  LIG0       -0.3236
      5  C20       -5.4860   -3.9640    3.8160 C.3     0  LIG0        0.3024
      6  O14       -4.7670   -5.0940    4.2670 O.3     0  LIG0       -0.1869
      7  C22       -6.9080   -3.9620    4.3730 C.3     0  LIG0        0.2434
      8  O16       -7.5930   -5.1280    3.9230 O.3     0  LIG0       -0.2148
      9  C21       -7.6500   -2.6940    3.9390 C.3     0  LIG0        0.2199
     10  O15       -8.9340   -2.6650    4.5420 O.3     0  LIG0       -0.2174
     11  C23       -6.8410   -1.4510    4.3200 C.3     0  LIG0        0.2144
     12  O17       -7.4580   -0.2810    3.8290 O.3     0  LIG0       -0.2176
@<TRIPOS>BOND
     1     3     2    1
     2     3     4    1
     3     3    11    1
     4     5     4    1
     5     5     6    1
     6     5     7    1
     7    12    11    1
     8     8     7    1
     9     9    11    1
    10     9     7    1
    11     9    10    1
    12     2     1    1
