@<TRIPOS>MOLECULE
/Users/xuhangdai/Desktop/Projects/OptimalTransport/extra_bio_ligands_boltz_af3/boltz_results_8w4x_sugars/8w4x_sugars_model_41_chainB.pdb
 12 12 0 0 0
SMALL
GASTEIGER

@<TRIPOS>ATOM
      1  O13       -1.2740    6.6790   -5.5430 O.3     0  LIG0       -0.2176
      2  C19       -0.2550    5.9410   -4.8710 C.3     0  LIG0        0.2142
      3  C24        0.9330    6.8230   -4.5650 C.3     0  LIG0        0.1836
      4  O18        0.4930    7.9410   -3.7670 O.3     0  LIG0       -0.3236
      5  C20        1.5490    8.8630   -3.4680 C.3     0  LIG0        0.3024
      6  O14        1.0210    9.9290   -2.7070 O.3     0  LIG0       -0.1869
      7  C22        2.7000    8.1910   -2.7350 C.3     0  LIG0        0.2434
      8  O16        3.7400    9.1320   -2.5450 O.3     0  LIG0       -0.2148
      9  C21        3.2000    6.9850   -3.5240 C.3     0  LIG0        0.2199
     10  O15        4.1880    6.3060   -2.7690 O.3     0  LIG0       -0.2174
     11  C23        2.0460    6.0510   -3.8550 C.3     0  LIG0        0.2144
     12  O17        2.4850    4.9900   -4.6640 O.3     0  LIG0       -0.2176
@<TRIPOS>BOND
     1     1     2    1
     2     2     3    1
     3    12    11    1
     4     3    11    1
     5     3     4    1
     6    11     9    1
     7     4     5    1
     8     9    10    1
     9     9     7    1
    10     5     7    1
    11     5     6    1
    12     7     8    1
