@<TRIPOS>MOLECULE
/Users/xuhangdai/Desktop/Projects/OptimalTransport/extra_bio_ligands_boltz_af3/boltz_results_8w4x_sugars/8w4x_sugars_model_25_chainC.pdb
 23 24 0 0 0
SMALL
GASTEIGER

@<TRIPOS>ATOM
      1  O23       -9.4770   -2.2380    0.5590 O.3     0  LIG0       -0.2176
      2  C34       -9.4130   -1.4950   -0.6500 C.3     0  LIG0        0.2142
      3  C44       -9.9240   -2.3460   -1.8030 C.3     0  LIG0        0.1835
      4  O32      -11.3340   -2.5700   -1.6430 O.3     0  LIG0       -0.3256
      5  C37      -11.9990   -3.3430   -2.6560 C.3     0  LIG0        0.2695
      6  O31      -11.6580   -4.7050   -2.4340 O.3     0  LIG0       -0.3257
      7  C43      -12.7130   -5.5280   -1.8900 C.3     0  LIG0        0.1804
      8  C39      -12.5770   -6.9110   -2.4800 C.3     0  LIG0        0.2168
      9  O27      -12.7320   -6.8600   -3.8970 O.3     0  LIG0       -0.2175
     10  C41      -13.6150   -7.8470   -1.8680 C.3     0  LIG0        0.2433
     11  O29      -13.4310   -9.1690   -2.3290 O.3     0  LIG0       -0.2148
     12  C36      -13.5150   -7.8520   -0.3530 C.3     0  LIG0        0.3023
     13  O25      -14.5140   -8.6570    0.2170 O.3     0  LIG0       -0.1869
     14  O33      -13.6620   -6.5190    0.1390 O.3     0  LIG0       -0.3237
     15  C45      -12.6770   -5.6010   -0.3560 C.3     0  LIG0        0.1804
     16  C35      -12.9400   -4.2540    0.3000 C.3     0  LIG0        0.2141
     17  O24      -12.9740   -4.3890    1.7100 O.3     0  LIG0       -0.2176
     18  C40      -11.6260   -2.9150   -4.0770 C.3     0  LIG0        0.2406
     19  O28      -12.0320   -3.9220   -5.0040 O.3     0  LIG0       -0.2149
     20  C38      -10.1270   -2.6120   -4.2500 C.3     0  LIG0        0.2198
     21  O26       -9.9080   -2.0040   -5.5220 O.3     0  LIG0       -0.2174
     22  C42       -9.6250   -1.7030   -3.1520 C.3     0  LIG0        0.2144
     23  O30       -8.2480   -1.4390   -3.2840 O.3     0  LIG0       -0.2176
@<TRIPOS>BOND
     1    21    20    1
     2    19    18    1
     3    20    18    1
     4    20    22    1
     5    18     5    1
     6     9     8    1
     7    23    22    1
     8    22     3    1
     9     5     6    1
    10     5     4    1
    11     8     7    1
    12     8    10    1
    13     6     7    1
    14    11    10    1
    15     7    15    1
    16    10    12    1
    17     3     4    1
    18     3     2    1
    19     2     1    1
    20    15    14    1
    21    15    16    1
    22    12    14    1
    23    12    13    1
    24    16    17    1
