@<TRIPOS>MOLECULE
/Users/xuhangdai/Desktop/Projects/OptimalTransport/extra_bio_ligands_boltz_af3/boltz_results_8w4x_sugars/8w4x_sugars_model_8_chainB.pdb
 12 12 0 0 0
SMALL
GASTEIGER

@<TRIPOS>ATOM
      1  O13       -2.4430   -8.6420    2.3640 O.3     0  LIG0       -0.2176
      2  C19       -1.8930   -7.6570    3.2230 C.3     0  LIG0        0.2142
      3  C24       -2.9370   -7.1710    4.2130 C.3     0  LIG0        0.1836
      4  O18       -4.0670   -6.6430    3.4740 O.3     0  LIG0       -0.3236
      5  C20       -5.0940   -6.1050    4.3270 C.3     0  LIG0        0.3024
      6  O14       -6.1130   -5.5760    3.5000 O.3     0  LIG0       -0.1869
      7  C22       -5.6420   -7.1810    5.2690 C.3     0  LIG0        0.2434
      8  O16       -6.6350   -6.6040    6.1080 O.3     0  LIG0       -0.2148
      9  C21       -4.5060   -7.7860    6.1030 C.3     0  LIG0        0.2199
     10  O15       -5.0160   -8.8440    6.8970 O.3     0  LIG0       -0.2174
     11  C23       -3.3900   -8.2900    5.1810 C.3     0  LIG0        0.2144
     12  O17       -2.2860   -8.7500    5.9280 O.3     0  LIG0       -0.2176
@<TRIPOS>BOND
     1     1     2    1
     2     2     3    1
     3     4     3    1
     4     4     5    1
     5     6     5    1
     6     3    11    1
     7     5     7    1
     8    11    12    1
     9    11     9    1
    10     7     9    1
    11     7     8    1
    12     9    10    1
