@<TRIPOS>MOLECULE
/Users/xuhangdai/Desktop/Projects/OptimalTransport/extra_bio_ligands_boltz_af3/boltz_results_8w4x_sugars/8w4x_sugars_model_31_chainB.pdb
 12 12 0 0 0
SMALL
GASTEIGER

@<TRIPOS>ATOM
      1  O13       -3.5890   -8.4720    0.7720 O.3     0  LIG0       -0.2176
      2  C19       -3.9070   -7.1260    0.4640 C.3     0  LIG0        0.2142
      3  C24       -3.6370   -6.8510   -1.0000 C.3     0  LIG0        0.1836
      4  O18       -2.2360   -7.0890   -1.2540 O.3     0  LIG0       -0.3236
      5  C20       -1.8600   -6.8090   -2.6120 C.3     0  LIG0        0.3024
      6  O14       -0.4700   -7.0270   -2.7380 O.3     0  LIG0       -0.1869
      7  C22       -2.6390   -7.6880   -3.5780 C.3     0  LIG0        0.2434
      8  O16       -2.2530   -7.3670   -4.9050 O.3     0  LIG0       -0.2148
      9  C21       -4.1400   -7.4930   -3.3850 C.3     0  LIG0        0.2199
     10  O15       -4.8400   -8.3960   -4.2200 O.3     0  LIG0       -0.2174
     11  C23       -4.5180   -7.7150   -1.9240 C.3     0  LIG0        0.2144
     12  O17       -5.8730   -7.4080   -1.7060 O.3     0  LIG0       -0.2176
@<TRIPOS>BOND
     1     8     7    1
     2    10     9    1
     3     7     9    1
     4     7     5    1
     5     9    11    1
     6     6     5    1
     7     5     4    1
     8    11    12    1
     9    11     3    1
    10     4     3    1
    11     3     2    1
    12     2     1    1
