@<TRIPOS>MOLECULE
/Users/xuhangdai/Desktop/Projects/OptimalTransport/extra_bio_ligands_boltz_af3/boltz_results_8w4x_sugars/8w4x_sugars_model_13_chainB.pdb
 12 12 0 0 0
SMALL
GASTEIGER

@<TRIPOS>ATOM
      1  O13        3.1710   -8.1300    0.8000 O.3     0  LIG0       -0.2176
      2  C19        2.6430   -7.2060   -0.1450 C.3     0  LIG0        0.2142
      3  C24        3.6770   -6.1490   -0.4960 C.3     0  LIG0        0.1836
      4  O18        4.0070   -5.4050    0.7040 O.3     0  LIG0       -0.3236
      5  C20        4.9520   -4.3400    0.4700 C.3     0  LIG0        0.3024
      6  O14        5.1670   -3.6590    1.6920 O.3     0  LIG0       -0.1869
      7  C22        6.2630   -4.8890   -0.0910 C.3     0  LIG0        0.2434
      8  O16        7.1560   -3.8050   -0.3290 O.3     0  LIG0       -0.2148
      9  C21        6.0020   -5.6830   -1.3790 C.3     0  LIG0        0.2199
     10  O15        7.2140   -6.2660   -1.8290 O.3     0  LIG0       -0.2174
     11  C23        4.9470   -6.7640   -1.1300 C.3     0  LIG0        0.2144
     12  O17        4.6080   -7.4220   -2.3330 O.3     0  LIG0       -0.2176
@<TRIPOS>BOND
     1    12    11    1
     2    10     9    1
     3     9    11    1
     4     9     7    1
     5    11     3    1
     6     3     2    1
     7     3     4    1
     8     8     7    1
     9     2     1    1
    10     7     5    1
    11     5     4    1
    12     5     6    1
