@<TRIPOS>MOLECULE
/Users/xuhangdai/Desktop/Projects/OptimalTransport/extra_bio_ligands_boltz_af3/boltz_results_8w4x_sugars/8w4x_sugars_model_41_chainC.pdb
 23 24 0 0 0
SMALL
GASTEIGER

@<TRIPOS>ATOM
      1  O23        8.5890   -1.3350   -1.1530 O.3     0  LIG0       -0.2176
      2  C34        8.2820    0.0120   -1.4600 C.3     0  LIG0        0.2142
      3  C44        9.0800    0.9500   -0.5720 C.3     0  LIG0        0.1835
      4  O32       10.4780    0.7610   -0.8200 O.3     0  LIG0       -0.3256
      5  C37       11.3790    1.5720   -0.0670 C.3     0  LIG0        0.2695
      6  O31       11.3920    1.0830    1.2610 O.3     0  LIG0       -0.3257
      7  C43       12.5440    0.3250    1.6030 C.3     0  LIG0        0.1804
      8  C39       13.0800    0.8360    2.9120 C.3     0  LIG0        0.2168
      9  O27       13.3930    2.2230    2.8320 O.3     0  LIG0       -0.2175
     10  C41       14.3060    0.0340    3.3110 C.3     0  LIG0        0.2433
     11  O29       14.7590    0.4280    4.5880 O.3     0  LIG0       -0.2148
     12  C36       13.9910   -1.4550    3.3400 C.3     0  LIG0        0.3023
     13  O25       15.1430   -2.2080    3.5990 O.3     0  LIG0       -0.1869
     14  O33       13.4570   -1.8650    2.0780 O.3     0  LIG0       -0.3237
     15  C45       12.2570   -1.1750    1.7280 C.3     0  LIG0        0.1804
     16  C35       11.6560   -1.7840    0.4740 C.3     0  LIG0        0.2141
     17  O24       12.6100   -2.4730   -0.2980 O.3     0  LIG0       -0.2176
     18  C40       10.9930    3.0470   -0.0780 C.3     0  LIG0        0.2406
     19  O28       11.7470    3.7480    0.9020 O.3     0  LIG0       -0.2149
     20  C38        9.4940    3.2800    0.1410 C.3     0  LIG0        0.2198
     21  O26        9.1800    4.6510   -0.0820 O.3     0  LIG0       -0.2174
     22  C42        8.6750    2.4080   -0.7760 C.3     0  LIG0        0.2144
     23  O30        7.2960    2.5850   -0.5630 O.3     0  LIG0       -0.2176
@<TRIPOS>BOND
     1     2     1    1
     2     2     3    1
     3     4     3    1
     4     4     5    1
     5    22     3    1
     6    22    23    1
     7    22    20    1
     8    17    16    1
     9    21    20    1
    10    18     5    1
    11    18    20    1
    12    18    19    1
    13     5     6    1
    14    16    15    1
    15     6     7    1
    16     7    15    1
    17     7     8    1
    18    15    14    1
    19    14    12    1
    20     9     8    1
    21     8    10    1
    22    10    12    1
    23    10    11    1
    24    12    13    1
