@<TRIPOS>MOLECULE
/Users/xuhangdai/Desktop/Projects/OptimalTransport/extra_bio_ligands_boltz_af3/boltz_results_8w4x_sugars/8w4x_sugars_model_38_chainC.pdb
 23 24 0 0 0
SMALL
GASTEIGER

@<TRIPOS>ATOM
      1  O23       -3.4370    3.5120   -8.6680 O.3     0  LIG0       -0.2176
      2  C34       -4.6730    2.9610   -8.2410 C.3     0  LIG0        0.2142
      3  C44       -5.7330    4.0510   -8.1970 C.3     0  LIG0        0.1835
      4  O32       -6.0190    4.4900   -9.5320 O.3     0  LIG0       -0.3256
      5  C37       -7.0210    5.4990   -9.6850 C.3     0  LIG0        0.2695
      6  O31       -6.4710    6.7320   -9.2210 O.3     0  LIG0       -0.3257
      7  C43       -6.1630    7.6960  -10.2320 C.3     0  LIG0        0.1804
      8  C39       -6.6340    9.0490   -9.7590 C.3     0  LIG0        0.2168
      9  O27       -8.0500    9.0360   -9.5530 O.3     0  LIG0       -0.2175
     10  C41       -6.2550   10.1200  -10.7710 C.3     0  LIG0        0.2433
     11  O29       -6.5990   11.4030  -10.2950 O.3     0  LIG0       -0.2148
     12  C36       -4.7600   10.0910  -11.0530 C.3     0  LIG0        0.3023
     13  O25       -4.4160   11.0230  -12.0450 O.3     0  LIG0       -0.1869
     14  O33       -4.3860    8.7870  -11.4990 O.3     0  LIG0       -0.3237
     15  C45       -4.6650    7.7450  -10.5570 C.3     0  LIG0        0.1804
     16  C35       -4.1570    6.4360  -11.1320 C.3     0  LIG0        0.2141
     17  O24       -2.8440    6.5900  -11.6220 O.3     0  LIG0       -0.2176
     18  C40       -8.2940    5.1810   -8.9130 C.3     0  LIG0        0.2406
     19  O28       -9.1300    6.3400   -8.8780 O.3     0  LIG0       -0.2149
     20  C38       -8.0210    4.6860   -7.4850 C.3     0  LIG0        0.2198
     21  O26       -9.2370    4.2320   -6.8970 O.3     0  LIG0       -0.2174
     22  C42       -7.0030    3.5670   -7.4940 C.3     0  LIG0        0.2144
     23  O30       -6.7130    3.1310   -6.1880 O.3     0  LIG0       -0.2176
@<TRIPOS>BOND
     1    13    12    1
     2    17    16    1
     3    14    12    1
     4    14    15    1
     5    16    15    1
     6    12    10    1
     7    10    11    1
     8    10     8    1
     9    15     7    1
    10     7     8    1
    11     7     6    1
    12     8     9    1
    13     5     4    1
    14     5     6    1
    15     5    18    1
    16     4     3    1
    17    18    19    1
    18    18    20    1
    19     1     2    1
    20     2     3    1
    21     3    22    1
    22    22    20    1
    23    22    23    1
    24    20    21    1
