@<TRIPOS>MOLECULE
/Users/xuhangdai/Desktop/Projects/OptimalTransport/extra_bio_ligands_boltz_af3/boltz_results_8w4x_sugars/8w4x_sugars_model_7_chainB.pdb
 12 12 0 0 0
SMALL
GASTEIGER

@<TRIPOS>ATOM
      1  O13        0.6890    9.4620   -3.4050 O.3     0  LIG0       -0.2176
      2  C19        0.9350    8.2460   -4.0940 C.3     0  LIG0        0.2142
      3  C24       -0.3050    7.8080   -4.8480 C.3     0  LIG0        0.1836
      4  O18       -1.4080    7.7500   -3.9160 O.3     0  LIG0       -0.3236
      5  C20       -2.6370    7.3080   -4.5200 C.3     0  LIG0        0.3024
      6  O14       -3.6300    7.2380   -3.5160 O.3     0  LIG0       -0.1869
      7  C22       -3.0560    8.2490   -5.6430 C.3     0  LIG0        0.2434
      8  O16       -4.2700    7.7770   -6.2100 O.3     0  LIG0       -0.2148
      9  C21       -1.9480    8.3390   -6.6940 C.3     0  LIG0        0.2199
     10  O15       -2.3170    9.2700   -7.6940 O.3     0  LIG0       -0.2174
     11  C23       -0.6320    8.7480   -6.0300 C.3     0  LIG0        0.2144
     12  O17        0.4290    8.7260   -6.9610 O.3     0  LIG0       -0.2176
@<TRIPOS>BOND
     1    10     9    1
     2    12    11    1
     3     9    11    1
     4     9     7    1
     5     8     7    1
     6    11     3    1
     7     7     5    1
     8     3     2    1
     9     3     4    1
    10     5     4    1
    11     5     6    1
    12     2     1    1
