@<TRIPOS>MOLECULE
/Users/xuhangdai/Desktop/Projects/OptimalTransport/extra_bio_ligands_boltz_af3/boltz_results_8w4x_sugars/8w4x_sugars_model_44_chainB.pdb
 12 12 0 0 0
SMALL
GASTEIGER

@<TRIPOS>ATOM
      1  O13       -9.0160   -2.8100   -4.3520 O.3     0  LIG0       -0.2176
      2  C19       -8.2950   -2.7040   -3.1400 C.3     0  LIG0        0.2142
      3  C24       -8.8510   -1.5740   -2.3010 C.3     0  LIG0        0.1836
      4  O18       -8.7610   -0.3540   -3.0660 O.3     0  LIG0       -0.3236
      5  C20       -9.2110    0.7950   -2.3330 C.3     0  LIG0        0.3024
      6  O14       -9.0540    1.9280   -3.1620 O.3     0  LIG0       -0.1869
      7  C22      -10.6610    0.6340   -1.8960 C.3     0  LIG0        0.2434
      8  O16      -11.0450    1.7680   -1.1380 O.3     0  LIG0       -0.2148
      9  C21      -10.8400   -0.6440   -1.0820 C.3     0  LIG0        0.2199
     10  O15      -12.2080   -0.8230   -0.7790 O.3     0  LIG0       -0.2174
     11  C23      -10.3020   -1.8390   -1.8590 C.3     0  LIG0        0.2144
     12  O17      -10.3640   -3.0140   -1.0870 O.3     0  LIG0       -0.2176
@<TRIPOS>BOND
     1     1     2    1
     2     6     5    1
     3     2     3    1
     4     4     5    1
     5     4     3    1
     6     5     7    1
     7     3    11    1
     8     7     8    1
     9     7     9    1
    10    11    12    1
    11    11     9    1
    12     9    10    1
