@<TRIPOS>MOLECULE
/Users/xuhangdai/Desktop/Projects/OptimalTransport/extra_bio_ligands_boltz_af3/boltz_results_8w4x_sugars/8w4x_sugars_model_39_chainB.pdb
 12 12 0 0 0
SMALL
GASTEIGER

@<TRIPOS>ATOM
      1  O13       -1.0130   -6.3340   -6.4830 O.3     0  LIG0       -0.2176
      2  C19       -1.8980   -5.6360   -5.6150 C.3     0  LIG0        0.2142
      3  C24       -3.2030   -6.3780   -5.4770 C.3     0  LIG0        0.1836
      4  O18       -2.9310   -7.7070   -4.9770 O.3     0  LIG0       -0.3236
      5  C20       -4.1170   -8.5020   -4.8290 C.3     0  LIG0        0.3024
      6  O14       -3.7520   -9.7960   -4.3950 O.3     0  LIG0       -0.1869
      7  C22       -5.1070   -7.8490   -3.8690 C.3     0  LIG0        0.2434
      8  O16       -6.2800   -8.6500   -3.7820 O.3     0  LIG0       -0.2148
      9  C21       -5.4490   -6.4400   -4.3520 C.3     0  LIG0        0.2199
     10  O15       -6.2930   -5.8080   -3.4050 O.3     0  LIG0       -0.2174
     11  C23       -4.1790   -5.6260   -4.5600 C.3     0  LIG0        0.2144
     12  O17       -4.4860   -4.3690   -5.1250 O.3     0  LIG0       -0.2176
@<TRIPOS>BOND
     1     1     2    1
     2     2     3    1
     3     3     4    1
     4     3    11    1
     5    12    11    1
     6     4     5    1
     7     5     6    1
     8     5     7    1
     9    11     9    1
    10     9     7    1
    11     9    10    1
    12     7     8    1
