@<TRIPOS>MOLECULE
/Users/xuhangdai/Desktop/Projects/OptimalTransport/extra_bio_ligands_boltz_af3/boltz_results_8w4x_sugars/8w4x_sugars_model_20_chainB.pdb
 12 12 0 0 0
SMALL
GASTEIGER

@<TRIPOS>ATOM
      1  O13       -4.8050    4.4330   -7.4110 O.3     0  LIG0       -0.2176
      2  C19       -4.5540    4.2060   -6.0390 C.3     0  LIG0        0.2142
      3  C24       -3.4500    5.1200   -5.5440 C.3     0  LIG0        0.1836
      4  O18       -2.2450    4.8400   -6.2970 O.3     0  LIG0       -0.3236
      5  C20       -1.1160    5.6110   -5.8550 C.3     0  LIG0        0.3024
      6  O14        0.0060    5.2310   -6.6240 O.3     0  LIG0       -0.1869
      7  C22       -1.3860    7.1050   -5.9800 C.3     0  LIG0        0.2434
      8  O16       -0.2610    7.8230   -5.4880 O.3     0  LIG0       -0.2148
      9  C21       -2.6540    7.4920   -5.2150 C.3     0  LIG0        0.2199
     10  O15       -2.9380    8.8630   -5.4370 O.3     0  LIG0       -0.2174
     11  C23       -3.8270    6.6120   -5.6560 C.3     0  LIG0        0.2144
     12  O17       -4.9760    6.8760   -4.8850 O.3     0  LIG0       -0.2176
@<TRIPOS>BOND
     1     1     2    1
     2     6     5    1
     3     4     5    1
     4     4     3    1
     5     2     3    1
     6     7     5    1
     7     7     8    1
     8     7     9    1
     9    11     3    1
    10    11     9    1
    11    11    12    1
    12    10     9    1
