@<TRIPOS>MOLECULE
/Users/xuhangdai/Desktop/Projects/OptimalTransport/extra_bio_ligands_boltz_af3/boltz_results_8w4x_sugars/8w4x_sugars_model_45_chainC.pdb
 23 24 0 0 0
SMALL
GASTEIGER

@<TRIPOS>ATOM
      1  O23        0.0840   -9.4330    4.4760 O.3     0  LIG0       -0.2176
      2  C34        1.0750   -8.6670    5.1470 C.3     0  LIG0        0.2142
      3  C44        0.8950   -8.8120    6.6490 C.3     0  LIG0        0.1835
      4  O32        1.1770  -10.1600    7.0270 O.3     0  LIG0       -0.3256
      5  C37        1.0670  -10.4810    8.4120 C.3     0  LIG0        0.2695
      6  O31       -0.3190  -10.5490    8.7220 O.3     0  LIG0       -0.3257
      7  C43       -0.8160  -11.8750    8.9210 C.3     0  LIG0        0.1804
      8  C39       -1.6850  -11.8750   10.1490 C.3     0  LIG0        0.2168
      9  O27       -0.9250  -11.4950   11.2960 O.3     0  LIG0       -0.2175
     10  C41       -2.2930  -13.2530   10.3470 C.3     0  LIG0        0.2433
     11  O29       -3.1730  -13.2580   11.4470 O.3     0  LIG0       -0.2148
     12  C36       -3.0560  -13.6820    9.1020 C.3     0  LIG0        0.3023
     13  O25       -3.5650  -14.9820    9.2480 O.3     0  LIG0       -0.1869
     14  O33       -2.1730  -13.6630    7.9800 O.3     0  LIG0       -0.3237
     15  C45       -1.6040  -12.3790    7.7090 C.3     0  LIG0        0.1804
     16  C35       -0.7380  -12.4910    6.4720 C.3     0  LIG0        0.2141
     17  O24       -1.3400  -13.3260    5.5120 O.3     0  LIG0       -0.2176
     18  C40        1.7540   -9.4690    9.3250 C.3     0  LIG0        0.2406
     19  O28        1.3170   -9.6610   10.6690 O.3     0  LIG0       -0.2149
     20  C38        1.5160   -8.0120    8.9010 C.3     0  LIG0        0.2198
     21  O26        2.3700   -7.1540    9.6500 O.3     0  LIG0       -0.2174
     22  C42        1.7690   -7.8320    7.4260 C.3     0  LIG0        0.2144
     23  O30        1.5210   -6.5060    7.0210 O.3     0  LIG0       -0.2176
@<TRIPOS>BOND
     1     1     2    1
     2     2     3    1
     3    17    16    1
     4    16    15    1
     5     3     4    1
     6     3    22    1
     7    23    22    1
     8     4     5    1
     9    22    20    1
    10    15    14    1
    11    15     7    1
    12    14    12    1
    13     5     6    1
    14     5    18    1
    15     6     7    1
    16    20    18    1
    17    20    21    1
    18     7     8    1
    19    12    13    1
    20    12    10    1
    21    18    19    1
    22     8    10    1
    23     8     9    1
    24    10    11    1
