@<TRIPOS>MOLECULE
/Users/xuhangdai/Desktop/Projects/OptimalTransport/extra_bio_ligands_boltz_af3/boltz_results_8w4x_sugars/8w4x_sugars_model_49_chainC.pdb
 23 24 0 0 0
SMALL
GASTEIGER

@<TRIPOS>ATOM
      1  O23        0.5510    5.6130   -0.6340 O.3     0  LIG0       -0.2176
      2  C34       -0.6710    5.6080   -1.3570 C.3     0  LIG0        0.2142
      3  C44       -1.7010    6.4630   -0.6250 C.3     0  LIG0        0.1835
      4  O32       -1.3120    7.8520   -0.7120 O.3     0  LIG0       -0.3256
      5  C37       -2.1900    8.8060   -0.0860 C.3     0  LIG0        0.2695
      6  O31       -2.0410    8.6480    1.3290 O.3     0  LIG0       -0.3257
      7  C43       -1.4030    9.7200    2.0500 C.3     0  LIG0        0.1804
      8  C39       -1.9890    9.7390    3.4390 C.3     0  LIG0        0.2168
      9  O27       -3.3920   10.0040    3.3710 O.3     0  LIG0       -0.2175
     10  C41       -1.2890   10.7950    4.2910 C.3     0  LIG0        0.2433
     11  O29       -1.7490   10.7390    5.6270 O.3     0  LIG0       -0.2148
     12  C36        0.2200   10.5870    4.3030 C.3     0  LIG0        0.3023
     13  O25        0.8630   11.6210    5.0090 O.3     0  LIG0       -0.1869
     14  O33        0.7070   10.5960    2.9560 O.3     0  LIG0       -0.3237
     15  C45        0.1320    9.5690    2.1250 C.3     0  LIG0        0.1804
     16  C35        0.7980    9.6600    0.7590 C.3     0  LIG0        0.2141
     17  O24        2.1990    9.4580    0.8840 O.3     0  LIG0       -0.2176
     18  C40       -3.6490    8.6050   -0.5030 C.3     0  LIG0        0.2406
     19  O28       -4.4960    9.3850    0.3450 O.3     0  LIG0       -0.2149
     20  C38       -4.0920    7.1280   -0.4590 C.3     0  LIG0        0.2198
     21  O26       -5.3800    7.0000   -1.0560 O.3     0  LIG0       -0.2174
     22  C42       -3.1040    6.2390   -1.1900 C.3     0  LIG0        0.2144
     23  O30       -3.4710    4.8770   -1.0770 O.3     0  LIG0       -0.2176
@<TRIPOS>BOND
     1     2     1    1
     2     2     3    1
     3    22    23    1
     4    22     3    1
     5    22    20    1
     6    21    20    1
     7     4     3    1
     8     4     5    1
     9    18    20    1
    10    18     5    1
    11    18    19    1
    12     5     6    1
    13    16    17    1
    14    16    15    1
    15     6     7    1
    16     7    15    1
    17     7     8    1
    18    15    14    1
    19    14    12    1
    20     9     8    1
    21     8    10    1
    22    10    12    1
    23    10    11    1
    24    12    13    1
