@<TRIPOS>MOLECULE
/Users/xuhangdai/Desktop/Projects/OptimalTransport/extra_bio_ligands_boltz_af3/boltz_results_8w4x_sugars/8w4x_sugars_model_11_chainB.pdb
 12 12 0 0 0
SMALL
GASTEIGER

@<TRIPOS>ATOM
      1  O13       10.2940   -0.4890   -2.7470 O.3     0  LIG0       -0.2176
      2  C19        9.3400   -1.2700   -2.0510 C.3     0  LIG0        0.2142
      3  C24        8.6090   -2.1860   -3.0090 C.3     0  LIG0        0.1836
      4  O18        8.0290   -1.3840   -4.0630 O.3     0  LIG0       -0.3236
      5  C20        7.2650   -2.1520   -5.0010 C.3     0  LIG0        0.3024
      6  O14        6.7100   -1.2630   -5.9500 O.3     0  LIG0       -0.1869
      7  C22        8.1320   -3.2100   -5.6760 C.3     0  LIG0        0.2434
      8  O16        7.3330   -3.9670   -6.5650 O.3     0  LIG0       -0.2148
      9  C21        8.7840   -4.1130   -4.6260 C.3     0  LIG0        0.2199
     10  O15        9.6560   -5.0230   -5.2680 O.3     0  LIG0       -0.2174
     11  C23        9.5360   -3.2700   -3.5990 C.3     0  LIG0        0.2144
     12  O17       10.0460   -4.0720   -2.5630 O.3     0  LIG0       -0.2176
@<TRIPOS>BOND
     1     8     7    1
     2     6     5    1
     3     7     5    1
     4     7     9    1
     5    10     9    1
     6     5     4    1
     7     9    11    1
     8     4     3    1
     9    11     3    1
    10    11    12    1
    11     3     2    1
    12     1     2    1
