@<TRIPOS>MOLECULE
/Users/xuhangdai/Desktop/Projects/OptimalTransport/extra_bio_ligands_boltz_af3/boltz_results_8w4x_sugars/8w4x_sugars_model_10_chainC.pdb
 23 24 0 0 0
SMALL
GASTEIGER

@<TRIPOS>ATOM
      1  O23       -2.5470    8.7400    0.9040 O.3     0  LIG0       -0.2176
      2  C34       -3.9100    8.5930    0.5480 C.3     0  LIG0        0.2142
      3  C44       -4.7650    8.7480    1.7780 C.3     0  LIG0        0.1835
      4  O32       -4.6030   10.0740    2.2770 O.3     0  LIG0       -0.3256
      5  C37       -5.3010   10.3300    3.4840 C.3     0  LIG0        0.2695
      6  O31       -5.1660   11.6690    3.8340 O.3     0  LIG0       -0.3257
      7  C43       -3.9280   12.0330    4.4310 C.3     0  LIG0        0.1804
      8  C39       -3.1750   12.9310    3.4620 C.3     0  LIG0        0.2168
      9  O27       -2.7180   12.1750    2.3340 O.3     0  LIG0       -0.2175
     10  C41       -1.9910   13.5950    4.1510 C.3     0  LIG0        0.2433
     11  O29       -1.3940   14.5470    3.2810 O.3     0  LIG0       -0.2148
     12  C36       -2.4380   14.3010    5.4230 C.3     0  LIG0        0.3023
     13  O25       -1.3520   14.8650    6.1090 O.3     0  LIG0       -0.1869
     14  O33       -3.0720   13.3420    6.2920 O.3     0  LIG0       -0.3237
     15  C45       -4.2440   12.7600    5.7250 C.3     0  LIG0        0.1804
     16  C35       -4.8780   11.8170    6.7410 C.3     0  LIG0        0.2141
     17  O24       -5.2780   12.5250    7.8980 O.3     0  LIG0       -0.2176
     18  C40       -6.7930   10.0660    3.3440 C.3     0  LIG0        0.2406
     19  O28       -7.4420   10.2240    4.6040 O.3     0  LIG0       -0.2149
     20  C38       -7.0470    8.6670    2.7910 C.3     0  LIG0        0.2198
     21  O26       -8.4420    8.5060    2.5460 O.3     0  LIG0       -0.2174
     22  C42       -6.2570    8.4680    1.5250 C.3     0  LIG0        0.2144
     23  O30       -6.4230    7.1480    1.0360 O.3     0  LIG0       -0.2176
@<TRIPOS>BOND
     1     2     1    1
     2     2     3    1
     3    23    22    1
     4    22     3    1
     5    22    20    1
     6     3     4    1
     7     4     5    1
     8     9     8    1
     9    21    20    1
    10    20    18    1
    11    11    10    1
    12    18     5    1
    13    18    19    1
    14     8    10    1
    15     8     7    1
    16     5     6    1
    17     6     7    1
    18    10    12    1
    19     7    15    1
    20    12    13    1
    21    12    14    1
    22    15    14    1
    23    15    16    1
    24    16    17    1
