@<TRIPOS>MOLECULE
/Users/xuhangdai/Desktop/Projects/OptimalTransport/extra_bio_ligands_boltz_af3/boltz_results_8w4x_sugars/8w4x_sugars_model_47_chainC.pdb
 23 24 0 0 0
SMALL
GASTEIGER

@<TRIPOS>ATOM
      1  O23       -4.6300    6.1650   -4.9990 O.3     0  LIG0       -0.2176
      2  C34       -3.4680    6.9560   -4.7840 C.3     0  LIG0        0.2142
      3  C44       -2.9540    7.4800   -6.1180 C.3     0  LIG0        0.1835
      4  O32       -3.9130    8.3930   -6.6710 O.3     0  LIG0       -0.3256
      5  C37       -3.5840    8.9700   -7.9370 C.3     0  LIG0        0.2695
      6  O31       -3.7300    7.9470   -8.9080 O.3     0  LIG0       -0.3257
      7  C43       -4.9060    8.0500   -9.7110 C.3     0  LIG0        0.1804
      8  C39       -4.5110    7.8820  -11.1550 C.3     0  LIG0        0.2168
      9  O27       -3.5450    8.8600  -11.5380 O.3     0  LIG0       -0.2175
     10  C41       -5.7460    7.9810  -12.0400 C.3     0  LIG0        0.2433
     11  O29       -5.4080    7.7140  -13.3850 O.3     0  LIG0       -0.2148
     12  C36       -6.8110    6.9850  -11.6000 C.3     0  LIG0        0.3023
     13  O25       -7.9950    7.1600  -12.3320 O.3     0  LIG0       -0.1869
     14  O33       -7.1130    7.1700  -10.2110 O.3     0  LIG0       -0.3237
     15  C45       -5.9720    6.9950   -9.3620 C.3     0  LIG0        0.1804
     16  C35       -6.4130    7.0260   -7.9060 C.3     0  LIG0        0.2141
     17  O24       -7.5860    7.7950   -7.7300 O.3     0  LIG0       -0.2176
     18  C40       -2.1670    9.5430   -7.9810 C.3     0  LIG0        0.2406
     19  O28       -1.8050    9.8360   -9.3320 O.3     0  LIG0       -0.2149
     20  C38       -1.1240    8.6110   -7.3480 C.3     0  LIG0        0.2198
     21  O26        0.1250    9.2920   -7.2380 O.3     0  LIG0       -0.2174
     22  C42       -1.5780    8.1370   -5.9870 C.3     0  LIG0        0.2144
     23  O30       -0.6500    7.2420   -5.4200 O.3     0  LIG0       -0.2176
@<TRIPOS>BOND
     1    11    10    1
     2    13    12    1
     3    10    12    1
     4    10     8    1
     5    12    14    1
     6     9     8    1
     7     8     7    1
     8    14    15    1
     9     7    15    1
    10     7     6    1
    11    15    16    1
    12    19    18    1
    13     6     5    1
    14    18     5    1
    15    18    20    1
    16     5     4    1
    17    16    17    1
    18    20    21    1
    19    20    22    1
    20     4     3    1
    21     3    22    1
    22     3     2    1
    23    22    23    1
    24     1     2    1
