@<TRIPOS>MOLECULE
/Users/xuhangdai/Desktop/Projects/OptimalTransport/extra_bio_ligands_boltz_af3/boltz_results_8w4x_sugars/8w4x_sugars_model_32_chainB.pdb
 12 12 0 0 0
SMALL
GASTEIGER

@<TRIPOS>ATOM
      1  O13       -8.9910   -2.9190   -1.2620 O.3     0  LIG0       -0.2176
      2  C19       -7.7760   -3.5790   -1.5560 C.3     0  LIG0        0.2142
      3  C24       -7.4720   -4.6140   -0.4880 C.3     0  LIG0        0.1836
      4  O18       -7.5090   -3.9680    0.8050 O.3     0  LIG0       -0.3236
      5  C20       -7.1670   -4.8580    1.8810 C.3     0  LIG0        0.3024
      6  O14       -7.1880   -4.1160    3.0790 O.3     0  LIG0       -0.1869
      7  C22       -8.1260   -6.0410    1.9430 C.3     0  LIG0        0.2434
      8  O16       -7.7210   -6.9070    2.9900 O.3     0  LIG0       -0.2148
      9  C21       -8.1510   -6.7810    0.6030 C.3     0  LIG0        0.2199
     10  O15       -9.1200   -7.8050    0.6510 O.3     0  LIG0       -0.2174
     11  C23       -8.4500   -5.8060   -0.5330 C.3     0  LIG0        0.2144
     12  O17       -8.3630   -6.4470   -1.7820 O.3     0  LIG0       -0.2176
@<TRIPOS>BOND
     1    12    11    1
     2     2     1    1
     3     2     3    1
     4    11     3    1
     5    11     9    1
     6     3     4    1
     7     9    10    1
     8     9     7    1
     9     4     5    1
    10     5     7    1
    11     5     6    1
    12     7     8    1
