@<TRIPOS>MOLECULE
/Users/xuhangdai/Desktop/Projects/OptimalTransport/extra_bio_ligands_boltz_af3/boltz_results_8w4x_sugars/8w4x_sugars_model_37_chainC.pdb
 23 24 0 0 0
SMALL
GASTEIGER

@<TRIPOS>ATOM
      1  O23       -1.7170    7.0610   -1.5200 O.3     0  LIG0       -0.2176
      2  C34       -2.7440    6.1870   -1.9640 C.3     0  LIG0        0.2142
      3  C44       -4.0350    6.4700   -1.2100 C.3     0  LIG0        0.1835
      4  O32       -4.5320    7.7630   -1.5850 O.3     0  LIG0       -0.3256
      5  C37       -5.7440    8.1890   -0.9550 C.3     0  LIG0        0.2695
      6  O31       -5.4520    8.4650    0.4080 O.3     0  LIG0       -0.3257
      7  C43       -5.3970    9.8470    0.7670 C.3     0  LIG0        0.1804
      8  C39       -6.2150   10.0540    2.0190 C.3     0  LIG0        0.2168
      9  O27       -7.5710    9.6520    1.8160 O.3     0  LIG0       -0.2175
     10  C41       -6.1500   11.5150    2.4430 C.3     0  LIG0        0.2433
     11  O29       -6.8130   11.7040    3.6740 O.3     0  LIG0       -0.2148
     12  C36       -4.7030   11.9750    2.5890 C.3     0  LIG0        0.3023
     13  O25       -4.6330   13.3470    2.8720 O.3     0  LIG0       -0.1869
     14  O33       -3.9880   11.7230    1.3730 O.3     0  LIG0       -0.3237
     15  C45       -3.9640   10.3370    1.0160 C.3     0  LIG0        0.1804
     16  C35       -3.0420   10.1280   -0.1680 C.3     0  LIG0        0.2141
     17  O24       -2.7720   11.3180   -0.8600 O.3     0  LIG0       -0.2176
     18  C40       -6.8420    7.1270   -1.0380 C.3     0  LIG0        0.2406
     19  O28       -7.9310    7.4910   -0.1890 O.3     0  LIG0       -0.2149
     20  C38       -6.3420    5.7170   -0.6810 C.3     0  LIG0        0.2198
     21  O26       -7.3590    4.7580   -0.9620 O.3     0  LIG0       -0.2174
     22  C42       -5.0840    5.3840   -1.4520 C.3     0  LIG0        0.2144
     23  O30       -4.5860    4.1180   -1.0870 O.3     0  LIG0       -0.2176
@<TRIPOS>BOND
     1     2     1    1
     2     2     3    1
     3     4     3    1
     4     4     5    1
     5    22     3    1
     6    22    23    1
     7    22    20    1
     8    18     5    1
     9    18    20    1
    10    18    19    1
    11    21    20    1
    12     5     6    1
    13    17    16    1
    14    16    15    1
    15     6     7    1
    16     7    15    1
    17     7     8    1
    18    15    14    1
    19    14    12    1
    20     9     8    1
    21     8    10    1
    22    10    12    1
    23    10    11    1
    24    12    13    1
