@<TRIPOS>MOLECULE
/Users/xuhangdai/Desktop/Projects/OptimalTransport/extra_bio_ligands_boltz_af3/boltz_results_8w4x_sugars/8w4x_sugars_model_3_chainC.pdb
 23 24 0 0 0
SMALL
GASTEIGER

@<TRIPOS>ATOM
      1  O23       -1.2550   -7.4150    6.2100 O.3     0  LIG0       -0.2176
      2  C34       -2.5400   -6.9550    6.5720 C.3     0  LIG0        0.2142
      3  C44       -3.5900   -7.7580    5.8420 C.3     0  LIG0        0.1835
      4  O32       -3.4800   -9.1220    6.2570 O.3     0  LIG0       -0.3256
      5  C37       -4.3680  -10.0140    5.6000 C.3     0  LIG0        0.2695
      6  O31       -4.2450  -11.2970    6.1470 O.3     0  LIG0       -0.3257
      7  C43       -3.0780  -12.0360    5.7710 C.3     0  LIG0        0.1804
      8  C39       -2.1130  -12.0770    6.9540 C.3     0  LIG0        0.2168
      9  O27       -1.5500  -10.7830    7.1840 O.3     0  LIG0       -0.2175
     10  C41       -0.9970  -13.0880    6.7100 C.3     0  LIG0        0.2433
     11  O29       -0.1900  -13.2140    7.8740 O.3     0  LIG0       -0.2148
     12  C36       -1.5800  -14.4520    6.3590 C.3     0  LIG0        0.3023
     13  O25       -0.5670  -15.3790    6.0690 O.3     0  LIG0       -0.1869
     14  O33       -2.4260  -14.3170    5.1930 O.3     0  LIG0       -0.3237
     15  C45       -3.5330  -13.4370    5.3900 C.3     0  LIG0        0.1804
     16  C35       -4.3820  -13.3990    4.1250 C.3     0  LIG0        0.2141
     17  O24       -4.9670  -14.6610    3.8760 O.3     0  LIG0       -0.2176
     18  C40       -5.8210   -9.5870    5.7710 C.3     0  LIG0        0.2406
     19  O28       -6.6760  -10.4330    5.0040 O.3     0  LIG0       -0.2149
     20  C38       -6.0180   -8.1240    5.3590 C.3     0  LIG0        0.2198
     21  O26       -7.3490   -7.7230    5.6690 O.3     0  LIG0       -0.2174
     22  C42       -5.0220   -7.2500    6.0820 C.3     0  LIG0        0.2144
     23  O30       -5.1330   -5.9040    5.6510 O.3     0  LIG0       -0.2176
@<TRIPOS>BOND
     1    17    16    1
     2    16    15    1
     3    19    18    1
     4    14    15    1
     5    14    12    1
     6    20    21    1
     7    20    18    1
     8    20    22    1
     9    15     7    1
    10     5    18    1
    11     5     6    1
    12     5     4    1
    13    23    22    1
    14     7     6    1
    15     7     8    1
    16     3    22    1
    17     3     4    1
    18     3     2    1
    19    13    12    1
    20     1     2    1
    21    12    10    1
    22    10     8    1
    23    10    11    1
    24     8     9    1
