@<TRIPOS>MOLECULE
/Users/xuhangdai/Desktop/Projects/OptimalTransport/extra_bio_ligands_boltz_af3/boltz_results_8w4x_sugars/8w4x_sugars_model_6_chainB.pdb
 12 12 0 0 0
SMALL
GASTEIGER

@<TRIPOS>ATOM
      1  O13       -0.3740   -9.5700   -2.1500 O.3     0  LIG0       -0.2176
      2  C19       -0.9520   -8.3780   -2.6510 C.3     0  LIG0        0.2142
      3  C24       -0.1530   -7.8690   -3.8320 C.3     0  LIG0        0.1836
      4  O18        1.2190   -7.6790   -3.4150 O.3     0  LIG0       -0.3236
      5  C20        2.0470   -7.1380   -4.4550 C.3     0  LIG0        0.3024
      6  O14        3.3420   -6.9390   -3.9240 O.3     0  LIG0       -0.1869
      7  C22        2.0790   -8.0700   -5.6610 C.3     0  LIG0        0.2434
      8  O16        2.8840   -7.4890   -6.6770 O.3     0  LIG0       -0.2148
      9  C21        0.6610   -8.3240   -6.1740 C.3     0  LIG0        0.2199
     10  O15        0.7050   -9.2640   -7.2310 O.3     0  LIG0       -0.2174
     11  C23       -0.2270   -8.8260   -5.0380 C.3     0  LIG0        0.2144
     12  O17       -1.5630   -8.9560   -5.4640 O.3     0  LIG0       -0.2176
@<TRIPOS>BOND
     1    10     9    1
     2     8     7    1
     3     9     7    1
     4     9    11    1
     5     7     5    1
     6    12    11    1
     7    11     3    1
     8     5     6    1
     9     5     4    1
    10     3     4    1
    11     3     2    1
    12     2     1    1
