@<TRIPOS>MOLECULE
/Users/xuhangdai/Desktop/Projects/OptimalTransport/extra_bio_ligands_boltz_af3/boltz_results_8w4x_sugars/8w4x_sugars_model_2_chainC.pdb
 23 24 0 0 0
SMALL
GASTEIGER

@<TRIPOS>ATOM
      1  O23        7.8930    4.0410   -0.7300 O.3     0  LIG0       -0.2176
      2  C34        7.1950    5.1530   -0.1820 C.3     0  LIG0        0.2142
      3  C44        7.9060    5.6260    1.0800 C.3     0  LIG0        0.1835
      4  O32        9.1630    6.2440    0.7230 O.3     0  LIG0       -0.3256
      5  C37        9.9670    6.7490    1.8090 C.3     0  LIG0        0.2695
      6  O31       10.4920    5.6140    2.5060 O.3     0  LIG0       -0.3257
      7  C43       11.9060    5.3420    2.3820 C.3     0  LIG0        0.1804
      8  C39       12.3460    4.6890    3.6730 C.3     0  LIG0        0.2168
      9  O27       12.1430    5.5880    4.7690 O.3     0  LIG0       -0.2175
     10  C41       13.8180    4.2820    3.5850 C.3     0  LIG0        0.2433
     11  O29       14.2060    3.5700    4.7480 O.3     0  LIG0       -0.2148
     12  C36       14.0700    3.3920    2.3710 C.3     0  LIG0        0.3023
     13  O25       15.4390    3.0880    2.2440 O.3     0  LIG0       -0.1869
     14  O33       13.6420    4.0750    1.1810 O.3     0  LIG0       -0.3237
     15  C45       12.2450    4.4340    1.1810 C.3     0  LIG0        0.1804
     16  C35       11.9350    5.0930   -0.1570 C.3     0  LIG0        0.2141
     17  O24       12.2640    4.2240   -1.2320 O.3     0  LIG0       -0.2176
     18  C40        9.1510    7.6320    2.7690 C.3     0  LIG0        0.2406
     19  O28        9.9010    7.8630    3.9640 O.3     0  LIG0       -0.2149
     20  C38        7.7780    7.0230    3.1300 C.3     0  LIG0        0.2198
     21  O26        7.0010    7.9860    3.8490 O.3     0  LIG0       -0.2174
     22  C42        7.0250    6.5880    1.8860 C.3     0  LIG0        0.2144
     23  O30        5.7990    5.9690    2.2270 O.3     0  LIG0       -0.2176
@<TRIPOS>BOND
     1    17    16    1
     2     1     2    1
     3     2     3    1
     4    16    15    1
     5     4     3    1
     6     4     5    1
     7     3    22    1
     8    14    15    1
     9    14    12    1
    10    15     7    1
    11     5     6    1
    12     5    18    1
    13    22    23    1
    14    22    20    1
    15    13    12    1
    16    12    10    1
    17     7     6    1
    18     7     8    1
    19    18    20    1
    20    18    19    1
    21    20    21    1
    22    10     8    1
    23    10    11    1
    24     8     9    1
