@<TRIPOS>MOLECULE
/Users/xuhangdai/Desktop/Projects/OptimalTransport/extra_bio_ligands_boltz_af3/boltz_results_8w4x_sugars/8w4x_sugars_model_40_chainB.pdb
 12 12 0 0 0
SMALL
GASTEIGER

@<TRIPOS>ATOM
      1  O13       -0.8470    2.5940    9.5450 O.3     0  LIG0       -0.2176
      2  C19        0.2490    2.6370    8.6510 C.3     0  LIG0        0.2142
      3  C24        0.1280    3.8450    7.7420 C.3     0  LIG0        0.1836
      4  O18       -1.1980    3.8660    7.1730 O.3     0  LIG0       -0.3236
      5  C20       -1.3890    4.9390    6.2410 C.3     0  LIG0        0.3024
      6  O14       -2.7000    4.8390    5.7320 O.3     0  LIG0       -0.1869
      7  C22       -1.1620    6.2930    6.9030 C.3     0  LIG0        0.2434
      8  O16       -1.3140    7.3150    5.9340 O.3     0  LIG0       -0.2148
      9  C21        0.2260    6.3510    7.5380 C.3     0  LIG0        0.2199
     10  O15        0.3720    7.5740    8.2290 O.3     0  LIG0       -0.2174
     11  C23        0.4180    5.1670    8.4790 C.3     0  LIG0        0.2144
     12  O17        1.7260    5.1460    9.0020 O.3     0  LIG0       -0.2176
@<TRIPOS>BOND
     1     6     5    1
     2     8     7    1
     3     5     7    1
     4     5     4    1
     5     7     9    1
     6     4     3    1
     7     9    10    1
     8     9    11    1
     9     3    11    1
    10     3     2    1
    11    11    12    1
    12     2     1    1
