@<TRIPOS>MOLECULE
/Users/xuhangdai/Desktop/Projects/OptimalTransport/extra_bio_ligands_boltz_af3/boltz_results_8w4x_sugars/8w4x_sugars_model_43_chainB.pdb
 12 12 0 0 0
SMALL
GASTEIGER

@<TRIPOS>ATOM
      1  O13        7.5200   -5.4990    3.2280 O.3     0  LIG0       -0.2176
      2  C19        7.1490   -4.5820    2.2190 C.3     0  LIG0        0.2142
      3  C24        7.4440   -3.1650    2.6650 C.3     0  LIG0        0.1836
      4  O18        6.7820   -2.9320    3.9310 O.3     0  LIG0       -0.3236
      5  C20        6.9520   -1.5900    4.4180 C.3     0  LIG0        0.3024
      6  O14        6.2420   -1.4720    5.6350 O.3     0  LIG0       -0.1869
      7  C22        8.4270   -1.2590    4.6130 C.3     0  LIG0        0.2434
      8  O16        8.5410    0.0860    5.0490 O.3     0  LIG0       -0.2148
      9  C21        9.2020   -1.4790    3.3120 C.3     0  LIG0        0.2199
     10  O15       10.5810   -1.2660    3.5440 O.3     0  LIG0       -0.2174
     11  C23        8.9580   -2.8920    2.7840 C.3     0  LIG0        0.2144
     12  O17        9.5730   -3.0780    1.5330 O.3     0  LIG0       -0.2176
@<TRIPOS>BOND
     1    12    11    1
     2     2     3    1
     3     2     1    1
     4     3    11    1
     5     3     4    1
     6    11     9    1
     7     9    10    1
     8     9     7    1
     9     4     5    1
    10     5     7    1
    11     5     6    1
    12     7     8    1
