@<TRIPOS>MOLECULE
/Users/xuhangdai/Desktop/Projects/OptimalTransport/extra_bio_ligands_boltz_af3/boltz_results_8w4x_sugars/8w4x_sugars_model_43_chainC.pdb
 23 24 0 0 0
SMALL
GASTEIGER

@<TRIPOS>ATOM
      1  O23        0.4700    3.9990    8.6980 O.3     0  LIG0       -0.2176
      2  C34        1.8240    3.6340    8.4720 C.3     0  LIG0        0.2142
      3  C44        2.7050    4.8690    8.5450 C.3     0  LIG0        0.1835
      4  O32        2.7170    5.3640    9.8940 O.3     0  LIG0       -0.3256
      5  C37        3.5190    6.5240   10.1570 C.3     0  LIG0        0.2695
      6  O31        2.8560    7.6510    9.5830 O.3     0  LIG0       -0.3257
      7  C43        2.2430    8.5730   10.5050 C.3     0  LIG0        0.1804
      8  C39        2.3780    9.9670    9.9460 C.3     0  LIG0        0.2168
      9  O27        3.7590   10.3110    9.8060 O.3     0  LIG0       -0.2175
     10  C41        1.6700   10.9690   10.8550 C.3     0  LIG0        0.2433
     11  O29        1.6910   12.2650   10.2850 O.3     0  LIG0       -0.2148
     12  C36        0.2190   10.5660   11.0830 C.3     0  LIG0        0.3023
     13  O25       -0.4060   11.4340   11.9960 O.3     0  LIG0       -0.1869
     14  O33        0.1690    9.2370   11.6120 O.3     0  LIG0       -0.3237
     15  C45        0.7660    8.2480   10.7620 C.3     0  LIG0        0.1804
     16  C35        0.5850    6.8920   11.4150 C.3     0  LIG0        0.2141
     17  O24       -0.7800    6.6150   11.6360 O.3     0  LIG0       -0.2176
     18  C40        4.9330    6.3930    9.5900 C.3     0  LIG0        0.2406
     19  O28        5.5720    7.6730    9.5960 O.3     0  LIG0       -0.2149
     20  C38        4.9710    5.8090    8.1690 C.3     0  LIG0        0.2198
     21  O26        6.3170    5.4960    7.8190 O.3     0  LIG0       -0.2174
     22  C42        4.1210    4.5650    8.0550 C.3     0  LIG0        0.2144
     23  O30        4.0910    4.0940    6.7260 O.3     0  LIG0       -0.2176
@<TRIPOS>BOND
     1    23    22    1
     2    21    20    1
     3    22    20    1
     4    22     3    1
     5    20    18    1
     6     2     3    1
     7     2     1    1
     8     3     4    1
     9     6     5    1
    10     6     7    1
    11    18    19    1
    12    18     5    1
    13     9     8    1
    14     4     5    1
    15     8     7    1
    16     8    10    1
    17    11    10    1
    18     7    15    1
    19    15    16    1
    20    15    14    1
    21    10    12    1
    22    12    14    1
    23    12    13    1
    24    16    17    1
