@<TRIPOS>MOLECULE
/Users/xuhangdai/Desktop/Projects/OptimalTransport/extra_bio_ligands_boltz_af3/boltz_results_8w4x_sugars/8w4x_sugars_model_48_chainB.pdb
 12 12 0 0 0
SMALL
GASTEIGER

@<TRIPOS>ATOM
      1  O13       -3.0750   -6.3800   -5.5780 O.3     0  LIG0       -0.2176
      2  C19       -2.0290   -5.4420   -5.7210 C.3     0  LIG0        0.2142
      3  C24       -0.7390   -6.1310   -6.1350 C.3     0  LIG0        0.1836
      4  O18       -0.3100   -7.0080   -5.0710 O.3     0  LIG0       -0.3236
      5  C20        0.9500   -7.6510   -5.3420 C.3     0  LIG0        0.3024
      6  O14        1.2720   -8.4600   -4.2280 O.3     0  LIG0       -0.1869
      7  C22        0.8840   -8.4810   -6.6240 C.3     0  LIG0        0.2434
      8  O16        2.1700   -9.0400   -6.8810 O.3     0  LIG0       -0.2148
      9  C21        0.4180   -7.6230   -7.8030 C.3     0  LIG0        0.2199
     10  O15        0.2560   -8.4400   -8.9460 O.3     0  LIG0       -0.2174
     11  C23       -0.8910   -6.9130   -7.4530 C.3     0  LIG0        0.2144
     12  O17       -1.2850   -6.0380   -8.4850 O.3     0  LIG0       -0.2176
@<TRIPOS>BOND
     1    10     9    1
     2    12    11    1
     3     9    11    1
     4     9     7    1
     5    11     3    1
     6     8     7    1
     7     7     5    1
     8     3     2    1
     9     3     4    1
    10     2     1    1
    11     5     4    1
    12     5     6    1
