@<TRIPOS>MOLECULE
/Users/xuhangdai/Desktop/Projects/OptimalTransport/extra_bio_ligands_boltz_af3/boltz_results_8w4x_sugars/8w4x_sugars_model_24_chainB.pdb
 12 12 0 0 0
SMALL
GASTEIGER

@<TRIPOS>ATOM
      1  O13        6.1930   -6.0710   -2.4230 O.3     0  LIG0       -0.2176
      2  C19        5.2330   -5.0670   -2.6750 C.3     0  LIG0        0.2142
      3  C24        5.8510   -3.6950   -2.5230 C.3     0  LIG0        0.1836
      4  O18        6.1360   -3.4730   -1.1290 O.3     0  LIG0       -0.3236
      5  C20        6.6590   -2.1610   -0.8740 C.3     0  LIG0        0.3024
      6  O14        6.8570   -2.0220    0.5150 O.3     0  LIG0       -0.1869
      7  C22        7.9570   -1.9420   -1.6300 C.3     0  LIG0        0.2434
      8  O16        8.3980   -0.6180   -1.3860 O.3     0  LIG0       -0.2148
      9  C21        7.7580   -2.1790   -3.1240 C.3     0  LIG0        0.2199
     10  O15        9.0090   -2.0990   -3.7800 O.3     0  LIG0       -0.2174
     11  C23        7.1220   -3.5370   -3.3680 C.3     0  LIG0        0.2144
     12  O17        6.8090   -3.7080   -4.7310 O.3     0  LIG0       -0.2176
@<TRIPOS>BOND
     1    12    11    1
     2    10     9    1
     3    11     9    1
     4    11     3    1
     5     9     7    1
     6     2     3    1
     7     2     1    1
     8     3     4    1
     9     7     8    1
    10     7     5    1
    11     4     5    1
    12     5     6    1
