@<TRIPOS>MOLECULE
/Users/xuhangdai/Desktop/Projects/OptimalTransport/extra_bio_ligands_boltz_af3/boltz_results_8w4x_sugars/8w4x_sugars_model_38_chainB.pdb
 12 12 0 0 0
SMALL
GASTEIGER

@<TRIPOS>ATOM
      1  O13       -8.5390   -5.8760   -1.3710 O.3     0  LIG0       -0.2176
      2  C19       -7.9070   -4.7550   -0.7870 C.3     0  LIG0        0.2142
      3  C24       -8.6600   -3.4880   -1.1400 C.3     0  LIG0        0.1836
      4  O18       -8.6250   -3.3080   -2.5710 O.3     0  LIG0       -0.3236
      5  C20       -9.2580   -2.0970   -3.0010 C.3     0  LIG0        0.3024
      6  O14       -9.1340   -2.0140   -4.4030 O.3     0  LIG0       -0.1869
      7  C22      -10.7220   -2.0610   -2.5770 C.3     0  LIG0        0.2434
      8  O16      -11.2900   -0.8300   -2.9830 O.3     0  LIG0       -0.2148
      9  C21      -10.8460   -2.2430   -1.0630 C.3     0  LIG0        0.2199
     10  O15      -12.2130   -2.3110   -0.7110 O.3     0  LIG0       -0.2174
     11  C23      -10.1130   -3.5090   -0.6280 C.3     0  LIG0        0.2144
     12  O17      -10.1240   -3.6460    0.7740 O.3     0  LIG0       -0.2176
@<TRIPOS>BOND
     1     6     5    1
     2     5     7    1
     3     5     4    1
     4     8     7    1
     5     7     9    1
     6     4     3    1
     7     1     2    1
     8     3     2    1
     9     3    11    1
    10     9    10    1
    11     9    11    1
    12    11    12    1
