@<TRIPOS>MOLECULE
/Users/xuhangdai/Desktop/Projects/OptimalTransport/extra_bio_ligands_boltz_af3/boltz_results_8w4x_sugars/8w4x_sugars_model_34_chainC.pdb
 23 24 0 0 0
SMALL
GASTEIGER

@<TRIPOS>ATOM
      1  O23        3.2060    3.4590   -8.9330 O.3     0  LIG0       -0.2176
      2  C34        3.2970    2.0390   -9.0410 C.3     0  LIG0        0.2142
      3  C44        2.3680    1.5470  -10.1410 C.3     0  LIG0        0.1835
      4  O32        2.9070    1.9080  -11.4270 O.3     0  LIG0       -0.3256
      5  C37        2.1530    1.5220  -12.5910 C.3     0  LIG0        0.2695
      6  O31        1.0690    2.4440  -12.7040 O.3     0  LIG0       -0.3257
      7  C43        1.1630    3.4250  -13.7590 C.3     0  LIG0        0.1804
      8  C39       -0.2440    3.7490  -14.2100 C.3     0  LIG0        0.2168
      9  O27       -0.8770    2.5720  -14.7230 O.3     0  LIG0       -0.2175
     10  C41       -0.2200    4.8510  -15.2710 C.3     0  LIG0        0.2433
     11  O29       -1.5380    5.2430  -15.6160 O.3     0  LIG0       -0.2148
     12  C36        0.5310    6.0820  -14.7760 C.3     0  LIG0        0.3023
     13  O25        0.6220    7.0650  -15.7840 O.3     0  LIG0       -0.1869
     14  O33        1.8570    5.7010  -14.3750 O.3     0  LIG0       -0.3237
     15  C45        1.8920    4.7150  -13.3270 C.3     0  LIG0        0.1804
     16  C35        3.3540    4.4770  -12.9720 C.3     0  LIG0        0.2141
     17  O24        3.9570    5.6750  -12.4970 O.3     0  LIG0       -0.2176
     18  C40        1.6430    0.0720  -12.5310 C.3     0  LIG0        0.2406
     19  O28        0.5980   -0.1190  -13.4870 O.3     0  LIG0       -0.2149
     20  C38        1.1500   -0.3570  -11.1330 C.3     0  LIG0        0.2198
     21  O26        0.9480   -1.7710  -11.1110 O.3     0  LIG0       -0.2174
     22  C42        2.1390    0.0400  -10.0570 C.3     0  LIG0        0.2144
     23  O30        1.6970   -0.3370   -8.7710 O.3     0  LIG0       -0.2176
@<TRIPOS>BOND
     1    13    12    1
     2    11    10    1
     3    10    12    1
     4    10     8    1
     5    12    14    1
     6     9     8    1
     7    14    15    1
     8     8     7    1
     9     7    15    1
    10     7     6    1
    11    19    18    1
    12    15    16    1
    13    16    17    1
    14     6     5    1
    15     5    18    1
    16     5     4    1
    17    18    20    1
    18     4     3    1
    19    20    21    1
    20    20    22    1
    21     3    22    1
    22     3     2    1
    23    22    23    1
    24     2     1    1
