@<TRIPOS>MOLECULE
/Users/xuhangdai/Desktop/Projects/OptimalTransport/extra_bio_ligands_boltz_af3/boltz_results_8w4x_sugars/8w4x_sugars_model_0_chainC.pdb
 23 24 0 0 0
SMALL
GASTEIGER

@<TRIPOS>ATOM
      1  O23       -8.5720   -0.3840    1.7480 O.3     0  LIG0       -0.2176
      2  C34       -8.5350    0.4190    0.5810 C.3     0  LIG0        0.2142
      3  C44       -9.1180   -0.3460   -0.5820 C.3     0  LIG0        0.1835
      4  O32      -10.4900   -0.6280   -0.2920 O.3     0  LIG0       -0.3256
      5  C37      -11.1420   -1.4120   -1.2850 C.3     0  LIG0        0.2695
      6  O31      -12.4800   -1.6230   -0.9320 O.3     0  LIG0       -0.3257
      7  C43      -12.6870   -2.5770    0.1180 C.3     0  LIG0        0.1804
      8  C39      -13.1630   -1.8360    1.3640 C.3     0  LIG0        0.2168
      9  O27      -12.0970   -1.0360    1.9030 O.3     0  LIG0       -0.2175
     10  C41      -13.6530   -2.8210    2.4240 C.3     0  LIG0        0.2433
     11  O29      -14.2260   -2.1160    3.5230 O.3     0  LIG0       -0.2148
     12  C36      -14.7090   -3.7580    1.8360 C.3     0  LIG0        0.3023
     13  O25      -15.1300   -4.7150    2.7800 O.3     0  LIG0       -0.1869
     14  O33      -14.1400   -4.4550    0.6990 O.3     0  LIG0       -0.3237
     15  C45      -13.7320   -3.5800   -0.3600 C.3     0  LIG0        0.1804
     16  C35      -13.1870   -4.4130   -1.5190 C.3     0  LIG0        0.2141
     17  O24      -14.2000   -5.2280   -2.0760 O.3     0  LIG0       -0.2176
     18  C40      -11.1120   -0.7150   -2.6420 C.3     0  LIG0        0.2406
     19  O28      -11.7110   -1.5440   -3.6390 O.3     0  LIG0       -0.2149
     20  C38       -9.6660   -0.3780   -3.0340 C.3     0  LIG0        0.2198
     21  O26       -9.6680    0.3640   -4.2500 O.3     0  LIG0       -0.2174
     22  C42       -9.0090    0.4100   -1.9230 C.3     0  LIG0        0.2144
     23  O30       -7.6410    0.6520   -2.2210 O.3     0  LIG0       -0.2176
@<TRIPOS>BOND
     1    21    20    1
     2    19    18    1
     3    20    18    1
     4    20    22    1
     5    18     5    1
     6    23    22    1
     7    17    16    1
     8    22     3    1
     9    16    15    1
    10     5     6    1
    11     5     4    1
    12     6     7    1
    13     3     4    1
    14     3     2    1
    15    15     7    1
    16    15    14    1
    17     7     8    1
    18     2     1    1
    19    14    12    1
    20     8     9    1
    21     8    10    1
    22    12    10    1
    23    12    13    1
    24    10    11    1
