@<TRIPOS>MOLECULE
/Users/xuhangdai/Desktop/Projects/OptimalTransport/extra_bio_ligands_boltz_af3/boltz_results_8w4x_sugars/8w4x_sugars_model_48_chainC.pdb
 23 24 0 0 0
SMALL
GASTEIGER

@<TRIPOS>ATOM
      1  O23        7.6290   -7.6800    1.4470 O.3     0  LIG0       -0.2176
      2  C34        7.0980   -8.1960    0.2350 C.3     0  LIG0        0.2142
      3  C44        8.2050   -8.8560   -0.5790 C.3     0  LIG0        0.1835
      4  O32        8.6760  -10.0260    0.1100 O.3     0  LIG0       -0.3256
      5  C37        9.7140  -10.7840   -0.5280 C.3     0  LIG0        0.2695
      6  O31       10.9160  -10.0120   -0.4500 O.3     0  LIG0       -0.3257
      7  C43       11.9070  -10.4670    0.4830 C.3     0  LIG0        0.1804
      8  C39       13.2560  -10.3350   -0.1730 C.3     0  LIG0        0.2168
      9  O27       13.3100  -11.1330   -1.3610 O.3     0  LIG0       -0.2175
     10  C41       14.3570  -10.7510    0.7960 C.3     0  LIG0        0.2433
     11  O29       15.6330  -10.5270    0.2300 O.3     0  LIG0       -0.2148
     12  C36       14.2590   -9.9620    2.0980 C.3     0  LIG0        0.3023
     13  O25       15.2070  -10.4190    3.0320 O.3     0  LIG0       -0.1869
     14  O33       12.9530  -10.1230    2.6600 O.3     0  LIG0       -0.3237
     15  C45       11.8860   -9.6860    1.8070 C.3     0  LIG0        0.1804
     16  C35       10.5730   -9.8430    2.5530 C.3     0  LIG0        0.2141
     17  O24       10.7230   -9.5670    3.9230 O.3     0  LIG0       -0.2176
     18  C40        9.3860  -11.0960   -1.9880 C.3     0  LIG0        0.2406
     19  O28       10.5470  -11.6050   -2.6500 O.3     0  LIG0       -0.2149
     20  C38        8.8470   -9.8760   -2.7540 C.3     0  LIG0        0.2198
     21  O26        8.3860  -10.2830   -4.0410 O.3     0  LIG0       -0.2174
     22  C42        7.7240   -9.2050   -1.9890 C.3     0  LIG0        0.2144
     23  O30        7.2800   -8.0460   -2.6580 O.3     0  LIG0       -0.2176
@<TRIPOS>BOND
     1    21    20    1
     2    20    22    1
     3    20    18    1
     4    23    22    1
     5    19    18    1
     6    22     3    1
     7    18     5    1
     8     9     8    1
     9     3     4    1
    10     3     2    1
    11     5     6    1
    12     5     4    1
    13     6     7    1
    14     8     7    1
    15     8    10    1
    16    11    10    1
    17     2     1    1
    18     7    15    1
    19    10    12    1
    20    15    16    1
    21    15    14    1
    22    12    14    1
    23    12    13    1
    24    16    17    1
