@<TRIPOS>MOLECULE
/Users/xuhangdai/Desktop/Projects/OptimalTransport/extra_bio_ligands_boltz_af3/boltz_results_8w4x_sugars/8w4x_sugars_model_12_chainB.pdb
 12 12 0 0 0
SMALL
GASTEIGER

@<TRIPOS>ATOM
      1  O13       -9.3380    4.3500   -2.3490 O.3     0  LIG0       -0.2176
      2  C19       -7.9280    4.3940   -2.4850 C.3     0  LIG0        0.2142
      3  C24       -7.4560    3.3280   -3.4590 C.3     0  LIG0        0.1836
      4  O18       -7.8250    2.0280   -2.9400 O.3     0  LIG0       -0.3236
      5  C20       -7.3650    0.9450   -3.7670 C.3     0  LIG0        0.3024
      6  O14       -7.7350   -0.2700   -3.1480 O.3     0  LIG0       -0.1869
      7  C22       -7.9450    1.0410   -5.1750 C.3     0  LIG0        0.2434
      8  O16       -7.4360   -0.0290   -5.9570 O.3     0  LIG0       -0.2148
      9  C21       -7.5960    2.3950   -5.8040 C.3     0  LIG0        0.2199
     10  O15       -8.2270    2.5060   -7.0640 O.3     0  LIG0       -0.2174
     11  C23       -8.0290    3.5320   -4.8780 C.3     0  LIG0        0.2144
     12  O17       -7.6130    4.7800   -5.3880 O.3     0  LIG0       -0.2176
@<TRIPOS>BOND
     1    10     9    1
     2     8     7    1
     3     9     7    1
     4     9    11    1
     5    12    11    1
     6     7     5    1
     7    11     3    1
     8     5     6    1
     9     5     4    1
    10     3     4    1
    11     3     2    1
    12     2     1    1
