@<TRIPOS>MOLECULE
/Users/xuhangdai/Desktop/Projects/OptimalTransport/extra_bio_ligands_boltz_af3/boltz_results_8w4x_sugars/8w4x_sugars_model_35_chainC.pdb
 23 24 0 0 0
SMALL
GASTEIGER

@<TRIPOS>ATOM
      1  O23       -3.9480   -2.5450   -6.8370 O.3     0  LIG0       -0.2176
      2  C34       -3.8940   -1.1280   -6.9320 C.3     0  LIG0        0.2142
      3  C44       -3.1820   -0.7250   -8.2110 C.3     0  LIG0        0.1835
      4  O32       -4.0040   -1.0430   -9.3390 O.3     0  LIG0       -0.3256
      5  C37       -3.4950   -0.7250  -10.6390 C.3     0  LIG0        0.2695
      6  O31       -2.5080   -1.6960  -10.9680 O.3     0  LIG0       -0.3257
      7  C43       -2.8920   -2.6580  -11.9620 C.3     0  LIG0        0.1804
      8  C39       -1.6970   -2.9610  -12.8300 C.3     0  LIG0        0.2168
      9  O27       -1.2350   -1.7700  -13.4670 O.3     0  LIG0       -0.2175
     10  C41       -2.0630   -4.0150  -13.8710 C.3     0  LIG0        0.2433
     11  O29       -0.9300   -4.3880  -14.6250 O.3     0  LIG0       -0.2148
     12  C36       -2.6300   -5.2640  -13.2090 C.3     0  LIG0        0.3023
     13  O25       -3.0620   -6.1910  -14.1700 O.3     0  LIG0       -0.1869
     14  O33       -3.7470   -4.9050  -12.3880 O.3     0  LIG0       -0.3237
     15  C45       -3.4360   -3.9610  -11.3610 C.3     0  LIG0        0.1804
     16  C35       -4.6920   -3.7420  -10.5370 C.3     0  LIG0        0.2141
     17  O24       -5.1170   -4.9580   -9.9670 O.3     0  LIG0       -0.2176
     18  C40       -2.8990    0.6800  -10.7240 C.3     0  LIG0        0.2406
     19  O28       -2.0930    0.7960  -11.8940 O.3     0  LIG0       -0.2149
     20  C38       -2.0770    1.0760   -9.4890 C.3     0  LIG0        0.2198
     21  O26       -1.7870    2.4700   -9.5400 O.3     0  LIG0       -0.2174
     22  C42       -2.8130    0.7550   -8.2120 C.3     0  LIG0        0.2144
     23  O30       -2.0430    1.0840   -7.0790 O.3     0  LIG0       -0.2176
@<TRIPOS>BOND
     1    11    10    1
     2    13    12    1
     3    10    12    1
     4    10     8    1
     5     9     8    1
     6    12    14    1
     7     8     7    1
     8    14    15    1
     9     7    15    1
    10     7     6    1
    11    19    18    1
    12    15    16    1
    13     6     5    1
    14    18     5    1
    15    18    20    1
    16     5     4    1
    17    16    17    1
    18    21    20    1
    19    20    22    1
    20     4     3    1
    21    22     3    1
    22    22    23    1
    23     3     2    1
    24     2     1    1
