@<TRIPOS>MOLECULE
/Users/xuhangdai/Desktop/Projects/OptimalTransport/extra_bio_ligands_boltz_af3/boltz_results_8w4x_sugars/8w4x_sugars_model_27_chainC.pdb
 23 24 0 0 0
SMALL
GASTEIGER

@<TRIPOS>ATOM
      1  O23        9.6800   -0.7100    1.6190 O.3     0  LIG0       -0.2176
      2  C34        9.3270    0.1320    2.7050 C.3     0  LIG0        0.2142
      3  C44        9.7810   -0.4960    4.0160 C.3     0  LIG0        0.1835
      4  O32       11.2170   -0.5010    4.0750 O.3     0  LIG0       -0.3256
      5  C37       11.8350   -1.0260    5.2560 C.3     0  LIG0        0.2695
      6  O31       11.7810   -2.4510    5.1770 O.3     0  LIG0       -0.3257
      7  C43       13.0350   -3.0900    4.8800 C.3     0  LIG0        0.1804
      8  C39       13.1500   -4.3390    5.7220 C.3     0  LIG0        0.2168
      9  O27       13.1140   -4.0080    7.1120 O.3     0  LIG0       -0.2175
     10  C41       14.4390   -5.0800    5.3860 C.3     0  LIG0        0.2433
     11  O29       14.5080   -6.3090    6.0860 O.3     0  LIG0       -0.2148
     12  C36       14.5300   -5.3710    3.8910 C.3     0  LIG0        0.3023
     13  O25       15.7580   -5.9710    3.5660 O.3     0  LIG0       -0.1869
     14  O33       14.4110   -4.1470    3.1620 O.3     0  LIG0       -0.3237
     15  C45       13.1800   -3.4430    3.3920 C.3     0  LIG0        0.1804
     16  C35       13.1540   -2.2130    2.5000 C.3     0  LIG0        0.2141
     17  O24       13.7280   -2.4760    1.2450 O.3     0  LIG0       -0.2176
     18  C40       11.1870   -0.5350    6.5530 C.3     0  LIG0        0.2406
     19  O28       11.5970   -1.3620    7.6450 O.3     0  LIG0       -0.2149
     20  C38        9.6510   -0.4760    6.4870 C.3     0  LIG0        0.2198
     21  O26        9.1500    0.2110    7.6360 O.3     0  LIG0       -0.2174
     22  C42        9.1880    0.2230    5.2270 C.3     0  LIG0        0.2144
     23  O30        7.7820    0.2710    5.1480 O.3     0  LIG0       -0.2176
@<TRIPOS>BOND
     1    17    16    1
     2     1     2    1
     3    16    15    1
     4     2     3    1
     5    14    15    1
     6    14    12    1
     7    15     7    1
     8    13    12    1
     9    12    10    1
    10     3     4    1
    11     3    22    1
    12     4     5    1
    13     7     6    1
    14     7     8    1
    15    23    22    1
    16     6     5    1
    17    22    20    1
    18     5    18    1
    19    10     8    1
    20    10    11    1
    21     8     9    1
    22    20    18    1
    23    20    21    1
    24    18    19    1
