@<TRIPOS>MOLECULE
/Users/xuhangdai/Desktop/Projects/OptimalTransport/extra_bio_ligands_boltz_af3/boltz_results_8w4x_sugars/8w4x_sugars_model_22_chainC.pdb
 23 24 0 0 0
SMALL
GASTEIGER

@<TRIPOS>ATOM
      1  O23        3.1110   -6.6440   -2.5590 O.3     0  LIG0       -0.2176
      2  C34        1.9790   -6.2520   -3.3110 C.3     0  LIG0        0.2142
      3  C44        1.0690   -7.4610   -3.5570 C.3     0  LIG0        0.1835
      4  O32        1.7810   -8.4330   -4.3420 O.3     0  LIG0       -0.3256
      5  C37        1.0650   -9.6280   -4.6900 C.3     0  LIG0        0.2695
      6  O31        0.0770   -9.2700   -5.6650 O.3     0  LIG0       -0.3257
      7  C43        0.3330   -9.7050   -7.0210 C.3     0  LIG0        0.1804
      8  C39       -0.9930  -10.0470   -7.6630 C.3     0  LIG0        0.2168
      9  O27       -1.6200  -11.1170   -6.9470 O.3     0  LIG0       -0.2175
     10  C41       -0.7820  -10.4390   -9.1280 C.3     0  LIG0        0.2433
     11  O29       -2.0260  -10.6550   -9.7690 O.3     0  LIG0       -0.2148
     12  C36       -0.0310   -9.3480   -9.8890 C.3     0  LIG0        0.3023
     13  O25        0.2520   -9.7520  -11.2090 O.3     0  LIG0       -0.1869
     14  O33        1.2120   -9.0690   -9.2240 O.3     0  LIG0       -0.3237
     15  C45        1.0640   -8.6410   -7.8590 C.3     0  LIG0        0.1804
     16  C35        2.4580   -8.3340   -7.3160 C.3     0  LIG0        0.2141
     17  O24        3.0690   -7.3070   -8.0750 O.3     0  LIG0       -0.2176
     18  C40        0.4060  -10.2850   -3.4730 C.3     0  LIG0        0.2406
     19  O28       -0.5170  -11.2890   -3.9110 O.3     0  LIG0       -0.2149
     20  C38       -0.3170   -9.2800   -2.5590 C.3     0  LIG0        0.2198
     21  O26       -0.7000   -9.9260   -1.3460 O.3     0  LIG0       -0.2174
     22  C42        0.5570   -8.0840   -2.2440 C.3     0  LIG0        0.2144
     23  O30       -0.1430   -7.1260   -1.4850 O.3     0  LIG0       -0.2176
@<TRIPOS>BOND
     1    13    12    1
     2    12    14    1
     3    12    10    1
     4    11    10    1
     5    14    15    1
     6    10     8    1
     7    17    16    1
     8    15    16    1
     9    15     7    1
    10     8     7    1
    11     8     9    1
    12     7     6    1
    13     6     5    1
    14     5     4    1
    15     5    18    1
    16     4     3    1
    17    19    18    1
    18     3     2    1
    19     3    22    1
    20    18    20    1
    21     2     1    1
    22    20    22    1
    23    20    21    1
    24    22    23    1
