@<TRIPOS>MOLECULE
/Users/xuhangdai/Desktop/Projects/OptimalTransport/extra_bio_ligands_boltz_af3/boltz_results_8w4x_sugars/8w4x_sugars_model_34_chainB.pdb
 12 12 0 0 0
SMALL
GASTEIGER

@<TRIPOS>ATOM
      1  O13        3.7990   -8.0280   -0.5240 O.3     0  LIG0       -0.2176
      2  C19        3.3520   -7.1320   -1.5460 C.3     0  LIG0        0.2142
      3  C24        3.0710   -7.8740   -2.8330 C.3     0  LIG0        0.1836
      4  O18        2.0830   -8.9050   -2.5790 O.3     0  LIG0       -0.3236
      5  C20        1.7730   -9.6860   -3.7510 C.3     0  LIG0        0.3024
      6  O14        0.8450  -10.6900   -3.3970 O.3     0  LIG0       -0.1869
      7  C22        1.2400   -8.8100   -4.8870 C.3     0  LIG0        0.2434
      8  O16        1.0100   -9.6210   -6.0340 O.3     0  LIG0       -0.2148
      9  C21        2.2430   -7.6970   -5.2060 C.3     0  LIG0        0.2199
     10  O15        1.6930   -6.8280   -6.1850 O.3     0  LIG0       -0.2174
     11  C23        2.5950   -6.9170   -3.9420 C.3     0  LIG0        0.2144
     12  O17        3.6070   -5.9710   -4.2170 O.3     0  LIG0       -0.2176
@<TRIPOS>BOND
     1    10     9    1
     2     8     7    1
     3     9     7    1
     4     9    11    1
     5     7     5    1
     6    12    11    1
     7    11     3    1
     8     5     6    1
     9     5     4    1
    10     3     4    1
    11     3     2    1
    12     2     1    1
