@<TRIPOS>MOLECULE
/Users/xuhangdai/Desktop/Projects/OptimalTransport/extra_bio_ligands_boltz_af3/boltz_results_8w4x_sugars/8w4x_sugars_model_14_chainC.pdb
 23 24 0 0 0
SMALL
GASTEIGER

@<TRIPOS>ATOM
      1  O23        6.8420   -3.7830    3.2520 O.3     0  LIG0       -0.2176
      2  C34        6.8180   -4.7480    2.2090 C.3     0  LIG0        0.2142
      3  C44        8.0810   -4.6270    1.3600 C.3     0  LIG0        0.1835
      4  O32        9.2100   -5.0700    2.1330 O.3     0  LIG0       -0.3256
      5  C37       10.4890   -5.0310    1.4750 C.3     0  LIG0        0.2695
      6  O31       10.8470   -3.6630    1.2770 O.3     0  LIG0       -0.3257
      7  C43       11.8660   -3.1490    2.1400 C.3     0  LIG0        0.1804
      8  C39       12.8700   -2.4040    1.2900 C.3     0  LIG0        0.2168
      9  O27       13.4520   -3.2790    0.3220 O.3     0  LIG0       -0.2175
     10  C41       13.9530   -1.7940    2.1780 C.3     0  LIG0        0.2433
     11  O29       14.8270   -0.9910    1.4070 O.3     0  LIG0       -0.2148
     12  C36       13.3420   -0.9290    3.2820 C.3     0  LIG0        0.3023
     13  O25       14.3320   -0.4800    4.1760 O.3     0  LIG0       -0.1869
     14  O33       12.3770   -1.6900    4.0290 O.3     0  LIG0       -0.3237
     15  C45       11.3050   -2.1960    3.2160 C.3     0  LIG0        0.1804
     16  C35       10.2630   -2.8530    4.1170 C.3     0  LIG0        0.2141
     17  O24       10.8770   -3.7110    5.0640 O.3     0  LIG0       -0.2176
     18  C40       10.4490   -5.7470    0.1230 C.3     0  LIG0        0.2406
     19  O28       11.6650   -5.4900   -0.5870 O.3     0  LIG0       -0.2149
     20  C38        9.2460   -5.3240   -0.7380 C.3     0  LIG0        0.2198
     21  O26        9.1670   -6.1600   -1.8920 O.3     0  LIG0       -0.2174
     22  C42        7.9530   -5.4170    0.0470 C.3     0  LIG0        0.2144
     23  O30        6.8720   -4.9260   -0.7130 O.3     0  LIG0       -0.2176
@<TRIPOS>BOND
     1    21    20    1
     2    20    22    1
     3    20    18    1
     4    23    22    1
     5    19    18    1
     6    22     3    1
     7    18     5    1
     8     9     8    1
     9     6     5    1
    10     6     7    1
    11     8     7    1
    12     8    10    1
    13     3     4    1
    14     3     2    1
    15    11    10    1
    16     5     4    1
    17     7    15    1
    18    10    12    1
    19     2     1    1
    20    15    14    1
    21    15    16    1
    22    12    14    1
    23    12    13    1
    24    16    17    1
