@<TRIPOS>MOLECULE
/Users/xuhangdai/Desktop/Projects/OptimalTransport/extra_bio_ligands_boltz_af3/boltz_results_8w4x_sugars/8w4x_sugars_model_8_chainC.pdb
 23 24 0 0 0
SMALL
GASTEIGER

@<TRIPOS>ATOM
      1  O23       -7.2340    2.9430   -0.2940 O.3     0  LIG0       -0.2176
      2  C34       -7.6890    1.6720    0.1370 C.3     0  LIG0        0.2142
      3  C44       -8.6140    1.8370    1.3250 C.3     0  LIG0        0.1835
      4  O32       -9.7620    2.5760    0.9000 O.3     0  LIG0       -0.3256
      5  C37      -10.6940    2.8620    1.9430 C.3     0  LIG0        0.2695
      6  O31      -11.8080    3.5290    1.4200 O.3     0  LIG0       -0.3257
      7  C43      -11.6060    4.9020    1.0710 C.3     0  LIG0        0.1804
      8  C39      -11.6570    5.0310   -0.4540 C.3     0  LIG0        0.2168
      9  O27      -10.5020    4.4160   -1.0480 O.3     0  LIG0       -0.2175
     10  C41      -11.7230    6.5010   -0.8710 C.3     0  LIG0        0.2433
     11  O29      -11.9190    6.6010   -2.2790 O.3     0  LIG0       -0.2148
     12  C36      -12.8740    7.2110   -0.1560 C.3     0  LIG0        0.3023
     13  O25      -12.9050    8.5820   -0.4760 O.3     0  LIG0       -0.1869
     14  O33      -12.6970    7.0770    1.2800 O.3     0  LIG0       -0.3237
     15  C45      -12.7130    5.7190    1.7320 C.3     0  LIG0        0.1804
     16  C35      -12.5740    5.6860    3.2520 C.3     0  LIG0        0.2141
     17  O24      -13.6560    6.3470    3.8760 O.3     0  LIG0       -0.2176
     18  C40      -11.1970    1.5850    2.6150 C.3     0  LIG0        0.2406
     19  O28      -12.0590    1.9050    3.7090 O.3     0  LIG0       -0.2149
     20  C38      -10.0130    0.7340    3.1020 C.3     0  LIG0        0.2198
     21  O26      -10.5010   -0.5010    3.6160 O.3     0  LIG0       -0.2174
     22  C42       -9.0530    0.4980    1.9500 C.3     0  LIG0        0.2144
     23  O30       -7.9100   -0.2230    2.3890 O.3     0  LIG0       -0.2176
@<TRIPOS>BOND
     1    11    10    1
     2     9     8    1
     3    10     8    1
     4    10    12    1
     5    13    12    1
     6     8     7    1
     7     1     2    1
     8    12    14    1
     9     2     3    1
    10     4     3    1
    11     4     5    1
    12     7     6    1
    13     7    15    1
    14    14    15    1
    15     3    22    1
    16     6     5    1
    17    15    16    1
    18     5    18    1
    19    22    23    1
    20    22    20    1
    21    18    20    1
    22    18    19    1
    23    20    21    1
    24    16    17    1
