@<TRIPOS>MOLECULE
/Users/xuhangdai/Desktop/Projects/OptimalTransport/extra_bio_ligands_boltz_af3/boltz_results_8w4x_sugars/8w4x_sugars_model_13_chainC.pdb
 23 24 0 0 0
SMALL
GASTEIGER

@<TRIPOS>ATOM
      1  O23        4.1390    4.5810    2.8210 O.3     0  LIG0       -0.2176
      2  C34        4.8370    3.3640    2.6040 C.3     0  LIG0        0.2142
      3  C44        5.8320    3.5410    1.4820 C.3     0  LIG0        0.1835
      4  O32        6.7330    4.5890    1.8460 O.3     0  LIG0       -0.3256
      5  C37        7.6830    4.9190    0.8360 C.3     0  LIG0        0.2695
      6  O31        8.5500    5.9230    1.2870 O.3     0  LIG0       -0.3257
      7  C43        7.9850    7.2380    1.3510 C.3     0  LIG0        0.1804
      8  C39        7.8570    7.6440    2.8190 C.3     0  LIG0        0.2168
      9  O27        6.8530    6.8480    3.4700 O.3     0  LIG0       -0.2175
     10  C41        7.5080    9.1260    2.9450 C.3     0  LIG0        0.2433
     11  O29        7.5320    9.5220    4.3130 O.3     0  LIG0       -0.2148
     12  C36        8.5080    9.9830    2.1620 C.3     0  LIG0        0.3023
     13  O25        8.1550   11.3470    2.2040 O.3     0  LIG0       -0.1869
     14  O33        8.5170    9.5560    0.7740 O.3     0  LIG0       -0.3237
     15  C45        8.9100    8.1900    0.5950 C.3     0  LIG0        0.1804
     16  C35        8.9290    7.8540   -0.8930 C.3     0  LIG0        0.2141
     17  O24        9.8760    8.6430   -1.5850 O.3     0  LIG0       -0.2176
     18  C40        8.5310    3.7070    0.4520 C.3     0  LIG0        0.2406
     19  O28        9.4180    4.0380   -0.6140 O.3     0  LIG0       -0.2149
     20  C38        7.6310    2.5320    0.0480 C.3     0  LIG0        0.2198
     21  O26        8.4360    1.3820   -0.1970 O.3     0  LIG0       -0.2174
     22  C42        6.6220    2.2610    1.1450 C.3     0  LIG0        0.2144
     23  O30        5.7270    1.2290    0.7580 O.3     0  LIG0       -0.2176
@<TRIPOS>BOND
     1    17    16    1
     2    16    15    1
     3    19    18    1
     4    21    20    1
     5    20    18    1
     6    20    22    1
     7    18     5    1
     8    15    14    1
     9    15     7    1
    10    23    22    1
    11    14    12    1
    12     5     6    1
    13     5     4    1
    14    22     3    1
    15     6     7    1
    16     7     8    1
    17     3     4    1
    18     3     2    1
    19    12    13    1
    20    12    10    1
    21     2     1    1
    22     8    10    1
    23     8     9    1
    24    10    11    1
