@<TRIPOS>MOLECULE
/Users/xuhangdai/Desktop/Projects/OptimalTransport/extra_bio_ligands_boltz_af3/boltz_results_8w4x_sugars/8w4x_sugars_model_2_chainB.pdb
 12 12 0 0 0
SMALL
GASTEIGER

@<TRIPOS>ATOM
      1  O13       -3.3700    9.8560   -1.3670 O.3     0  LIG0       -0.2176
      2  C19       -3.5990    8.7870   -0.4630 C.3     0  LIG0        0.2142
      3  C24       -3.0670    9.1370    0.9130 C.3     0  LIG0        0.1836
      4  O18       -1.6500    9.4390    0.8040 O.3     0  LIG0       -0.3236
      5  C20       -1.0410    9.7340    2.0780 C.3     0  LIG0        0.3024
      6  O14        0.3340    9.9650    1.8610 O.3     0  LIG0       -0.1869
      7  C22       -1.7110   10.9410    2.7400 C.3     0  LIG0        0.2434
      8  O16       -1.1090   11.1750    4.0120 O.3     0  LIG0       -0.2148
      9  C21       -3.2200   10.7030    2.8930 C.3     0  LIG0        0.2199
     10  O15       -3.8330   11.8710    3.4140 O.3     0  LIG0       -0.2174
     11  C23       -3.8340   10.3260    1.5410 C.3     0  LIG0        0.2144
     12  O17       -5.2030    9.9930    1.6870 O.3     0  LIG0       -0.2176
@<TRIPOS>BOND
     1     1     2    1
     2     2     3    1
     3     4     3    1
     4     4     5    1
     5     3    11    1
     6    11    12    1
     7    11     9    1
     8     6     5    1
     9     5     7    1
    10     7     9    1
    11     7     8    1
    12     9    10    1
