@<TRIPOS>MOLECULE
/Users/xuhangdai/Desktop/Projects/OptimalTransport/extra_bio_ligands_boltz_af3/boltz_results_8w4x_sugars/8w4x_sugars_model_45_chainB.pdb
 12 12 0 0 0
SMALL
GASTEIGER

@<TRIPOS>ATOM
      1  O13        7.6640    1.1190    4.5860 O.3     0  LIG0       -0.2176
      2  C19        6.2840    1.3610    4.7920 C.3     0  LIG0        0.2142
      3  C24        5.7290    0.3970    5.8180 C.3     0  LIG0        0.1836
      4  O18        5.8700   -0.9450    5.3050 O.3     0  LIG0       -0.3236
      5  C20        5.3410   -1.9440    6.1890 C.3     0  LIG0        0.3024
      6  O14        5.4820   -3.2060    5.5740 O.3     0  LIG0       -0.1869
      7  C22        6.0530   -1.9060    7.5310 C.3     0  LIG0        0.2434
      8  O16        5.4930   -2.8990    8.3760 O.3     0  LIG0       -0.2148
      9  C21        5.9330   -0.5190    8.1590 C.3     0  LIG0        0.2199
     10  O15        6.6820   -0.4790    9.3550 O.3     0  LIG0       -0.2174
     11  C23        6.4230    0.5450    7.1840 C.3     0  LIG0        0.2144
     12  O17        6.1910    1.8390    7.6920 O.3     0  LIG0       -0.2176
@<TRIPOS>BOND
     1     1     2    1
     2     2     3    1
     3     4     3    1
     4     4     5    1
     5     6     5    1
     6     3    11    1
     7     5     7    1
     8    11    12    1
     9    11     9    1
    10     7     9    1
    11     7     8    1
    12     9    10    1
