@<TRIPOS>MOLECULE
/Users/xuhangdai/Desktop/Projects/OptimalTransport/extra_bio_ligands_boltz_af3/boltz_results_8w4x_sugars/8w4x_sugars_model_9_chainC.pdb
 23 24 0 0 0
SMALL
GASTEIGER

@<TRIPOS>ATOM
      1  O23        4.6700   -2.7250   -6.2130 O.3     0  LIG0       -0.2176
      2  C34        5.4180   -3.0130   -5.0390 C.3     0  LIG0        0.2142
      3  C44        5.7360   -4.5000   -4.9890 C.3     0  LIG0        0.1835
      4  O32        6.7460   -4.8100   -5.9550 O.3     0  LIG0       -0.3256
      5  C37        7.1740   -6.1730   -6.0460 C.3     0  LIG0        0.2695
      6  O31        6.1710   -6.8620   -6.7680 O.3     0  LIG0       -0.3257
      7  C43        6.4940   -7.2090   -8.1260 C.3     0  LIG0        0.1804
      8  C39        5.8700   -8.5450   -8.4200 C.3     0  LIG0        0.2168
      9  O27        6.4030   -9.5400   -7.5490 O.3     0  LIG0       -0.2175
     10  C41        6.1080   -8.9280   -9.8740 C.3     0  LIG0        0.2433
     11  O29        5.4300  -10.1250  -10.1910 O.3     0  LIG0       -0.2148
     12  C36        5.6230   -7.8350  -10.8160 C.3     0  LIG0        0.3023
     13  O25        5.9250   -8.1470  -12.1510 O.3     0  LIG0       -0.1869
     14  O33        6.2600   -6.6000  -10.4820 O.3     0  LIG0       -0.3237
     15  C45        6.0110   -6.1600   -9.1430 C.3     0  LIG0        0.1804
     16  C35        6.6810   -4.8110   -8.9630 C.3     0  LIG0        0.2141
     17  O24        6.3010   -3.9190   -9.9900 O.3     0  LIG0       -0.2176
     18  C40        7.4160   -6.8320   -4.6820 C.3     0  LIG0        0.2406
     19  O28        7.4270   -8.2520   -4.8190 O.3     0  LIG0       -0.2149
     20  C38        6.3950   -6.4290   -3.6090 C.3     0  LIG0        0.2198
     21  O26        6.8530   -6.8580   -2.3300 O.3     0  LIG0       -0.2174
     22  C42        6.1700   -4.9370   -3.5990 C.3     0  LIG0        0.2144
     23  O30        5.2170   -4.5590   -2.6300 O.3     0  LIG0       -0.2176
@<TRIPOS>BOND
     1    13    12    1
     2    12    14    1
     3    12    10    1
     4    14    15    1
     5    11    10    1
     6    17    16    1
     7    10     8    1
     8    15    16    1
     9    15     7    1
    10     8     7    1
    11     8     9    1
    12     7     6    1
    13     6     5    1
    14     1     2    1
    15     5     4    1
    16     5    18    1
    17     4     3    1
    18     2     3    1
    19     3    22    1
    20    19    18    1
    21    18    20    1
    22    20    22    1
    23    20    21    1
    24    22    23    1
