@<TRIPOS>MOLECULE
/Users/xuhangdai/Desktop/Projects/OptimalTransport/extra_bio_ligands_boltz_af3/boltz_results_8w4x_sugars/8w4x_sugars_model_42_chainB.pdb
 12 12 0 0 0
SMALL
GASTEIGER

@<TRIPOS>ATOM
      1  O13        6.3860   -7.4600    5.0440 O.3     0  LIG0       -0.2176
      2  C19        5.1280   -7.4950    4.3740 C.3     0  LIG0        0.2142
      3  C24        4.4110   -8.7980    4.6390 C.3     0  LIG0        0.1836
      4  O18        4.3230   -9.0030    6.0680 O.3     0  LIG0       -0.3236
      5  C20        3.6750  -10.2360    6.4170 C.3     0  LIG0        0.3024
      6  O14        3.7010  -10.3860    7.8270 O.3     0  LIG0       -0.1869
      7  C22        2.2490  -10.2880    5.8740 C.3     0  LIG0        0.2434
      8  O16        1.6590  -11.5410    6.2110 O.3     0  LIG0       -0.2148
      9  C21        2.2620  -10.0840    4.3570 C.3     0  LIG0        0.2199
     10  O15        0.9260  -10.0210    3.8830 O.3     0  LIG0       -0.2174
     11  C23        3.0160   -8.8110    3.9920 C.3     0  LIG0        0.2144
     12  O17        3.1440   -8.7090    2.5880 O.3     0  LIG0       -0.2176
@<TRIPOS>BOND
     1    12    11    1
     2    10     9    1
     3    11     9    1
     4    11     3    1
     5     9     7    1
     6     2     3    1
     7     2     1    1
     8     3     4    1
     9     7     8    1
    10     7     5    1
    11     4     5    1
    12     5     6    1
