@<TRIPOS>MOLECULE
/Users/xuhangdai/Desktop/Projects/OptimalTransport/extra_bio_ligands_boltz_af3/boltz_results_8w4x_sugars/8w4x_sugars_model_36_chainC.pdb
 23 24 0 0 0
SMALL
GASTEIGER

@<TRIPOS>ATOM
      1  O23        9.1680    2.4350    1.6540 O.3     0  LIG0       -0.2176
      2  C34        8.7840    3.6530    1.0420 C.3     0  LIG0        0.2142
      3  C44        9.2190    4.8290    1.9100 C.3     0  LIG0        0.1835
      4  O32       10.6530    4.9210    1.8970 O.3     0  LIG0       -0.3256
      5  C37       11.2530    5.9950    2.6420 C.3     0  LIG0        0.2695
      6  O31       11.1680    5.6600    4.0290 O.3     0  LIG0       -0.3257
      7  C43       12.4020    5.2920    4.6780 C.3     0  LIG0        0.1804
      8  C39       12.3290    5.7820    6.1060 C.3     0  LIG0        0.2168
      9  O27       12.1990    7.2050    6.1300 O.3     0  LIG0       -0.2175
     10  C41       13.5730    5.3510    6.8760 C.3     0  LIG0        0.2433
     11  O29       13.4630    5.7100    8.2400 O.3     0  LIG0       -0.2148
     12  C36       13.7780    3.8450    6.7890 C.3     0  LIG0        0.3023
     13  O25       14.9720    3.4630    7.4230 O.3     0  LIG0       -0.1869
     14  O33       13.8410    3.4470    5.4150 O.3     0  LIG0       -0.3237
     15  C45       12.6720    3.7770    4.6500 C.3     0  LIG0        0.1804
     16  C35       12.8800    3.2560    3.2350 C.3     0  LIG0        0.2141
     17  O24       13.1020    1.8600    3.2450 O.3     0  LIG0       -0.2176
     18  C40       10.5840    7.3440    2.3680 C.3     0  LIG0        0.2406
     19  O28       10.9890    8.2950    3.3590 O.3     0  LIG0       -0.2149
     20  C38        9.0470    7.2690    2.3260 C.3     0  LIG0        0.2198
     21  O26        8.5260    8.5030    1.8370 O.3     0  LIG0       -0.2174
     22  C42        8.5720    6.1300    1.4490 C.3     0  LIG0        0.2144
     23  O30        7.1670    6.0230    1.4770 O.3     0  LIG0       -0.2176
@<TRIPOS>BOND
     1     2     1    1
     2     2     3    1
     3    22    23    1
     4    22     3    1
     5    22    20    1
     6    21    20    1
     7     4     3    1
     8     4     5    1
     9    20    18    1
    10    18     5    1
    11    18    19    1
    12     5     6    1
    13    16    17    1
    14    16    15    1
    15     6     7    1
    16    15     7    1
    17    15    14    1
    18     7     8    1
    19    14    12    1
    20     8     9    1
    21     8    10    1
    22    12    10    1
    23    12    13    1
    24    10    11    1
