@<TRIPOS>MOLECULE
/Users/xuhangdai/Desktop/Projects/OptimalTransport/extra_bio_ligands_boltz_af3/boltz_results_8w4x_sugars/8w4x_sugars_model_28_chainC.pdb
 23 24 0 0 0
SMALL
GASTEIGER

@<TRIPOS>ATOM
      1  O23       -6.0280   -5.2730    0.4540 O.3     0  LIG0       -0.2176
      2  C34       -6.3980   -4.2690   -0.4790 C.3     0  LIG0        0.2142
      3  C44       -6.8260   -4.9210   -1.7820 C.3     0  LIG0        0.1835
      4  O32       -8.0660   -5.6160   -1.5830 O.3     0  LIG0       -0.3256
      5  C37       -8.6340   -6.2800   -2.7170 C.3     0  LIG0        0.2695
      6  O31       -7.8820   -7.4690   -2.9380 O.3     0  LIG0       -0.3257
      7  C43       -8.5480   -8.6760   -2.5390 C.3     0  LIG0        0.1804
      8  C39       -8.2600   -9.7480   -3.5590 C.3     0  LIG0        0.2168
      9  O27       -8.7310   -9.3430   -4.8460 O.3     0  LIG0       -0.2175
     10  C41       -8.9230  -11.0540   -3.1410 C.3     0  LIG0        0.2433
     11  O29       -8.5720  -12.0940   -4.0290 O.3     0  LIG0       -0.2148
     12  C36       -8.4980  -11.4580   -1.7340 C.3     0  LIG0        0.3023
     13  O25       -9.1910  -12.6010   -1.3090 O.3     0  LIG0       -0.1869
     14  O33       -8.7750  -10.3910   -0.8210 O.3     0  LIG0       -0.3237
     15  C45       -8.1250   -9.1570   -1.1480 C.3     0  LIG0        0.1804
     16  C35       -8.4550   -8.1460   -0.0620 C.3     0  LIG0        0.2141
     17  O24       -8.0400   -8.6320    1.1940 O.3     0  LIG0       -0.2176
     18  C40       -8.6480   -5.4140   -3.9730 C.3     0  LIG0        0.2406
     19  O28       -8.8960   -6.2300   -5.1160 O.3     0  LIG0       -0.2149
     20  C38       -7.3570   -4.6070   -4.1760 C.3     0  LIG0        0.2198
     21  O26       -7.5520   -3.6560   -5.2210 O.3     0  LIG0       -0.2174
     22  C42       -6.9540   -3.8970   -2.9070 C.3     0  LIG0        0.2144
     23  O30       -5.7480   -3.1820   -3.0770 O.3     0  LIG0       -0.2176
@<TRIPOS>BOND
     1    21    20    1
     2    19    18    1
     3     9     8    1
     4    20    18    1
     5    20    22    1
     6    11    10    1
     7    18     5    1
     8     8    10    1
     9     8     7    1
    10    10    12    1
    11    23    22    1
    12     6     5    1
    13     6     7    1
    14    22     3    1
    15     5     4    1
    16     7    15    1
    17     3     4    1
    18     3     2    1
    19    12    13    1
    20    12    14    1
    21    15    14    1
    22    15    16    1
    23     2     1    1
    24    16    17    1
