@<TRIPOS>MOLECULE
/Users/xuhangdai/Desktop/Projects/OptimalTransport/extra_bio_ligands_boltz_af3/boltz_results_8w4x_sugars/8w4x_sugars_model_19_chainB.pdb
 12 12 0 0 0
SMALL
GASTEIGER

@<TRIPOS>ATOM
      1  O13       -5.8750    5.0470    4.9960 O.3     0  LIG0       -0.2176
      2  C19       -5.7110    4.6620    3.6460 C.3     0  LIG0        0.2142
      3  C24       -6.8650    3.7810    3.1960 C.3     0  LIG0        0.1836
      4  O18       -6.8960    2.5990    4.0280 O.3     0  LIG0       -0.3236
      5  C20       -7.9210    1.6650    3.6350 C.3     0  LIG0        0.3024
      6  O14       -7.8330    0.5360    4.4840 O.3     0  LIG0       -0.1869
      7  C22       -9.3090    2.3090    3.7170 C.3     0  LIG0        0.2434
      8  O16      -10.2930    1.3700    3.2880 O.3     0  LIG0       -0.2148
      9  C21       -9.3580    3.5780    2.8610 C.3     0  LIG0        0.2199
     10  O15      -10.6150    4.2140    3.0290 O.3     0  LIG0       -0.2174
     11  C23       -8.2200    4.5230    3.2470 C.3     0  LIG0        0.2144
     12  O17       -8.1860    5.6470    2.3920 O.3     0  LIG0       -0.2176
@<TRIPOS>BOND
     1    12    11    1
     2     9    10    1
     3     9    11    1
     4     9     7    1
     5     3    11    1
     6     3     2    1
     7     3     4    1
     8     8     7    1
     9     5     7    1
    10     5     4    1
    11     5     6    1
    12     2     1    1
