@<TRIPOS>MOLECULE
/Users/xuhangdai/Desktop/Projects/OptimalTransport/extra_bio_ligands_boltz_af3/boltz_results_8w4x_sugars/8w4x_sugars_model_28_chainB.pdb
 12 12 0 0 0
SMALL
GASTEIGER

@<TRIPOS>ATOM
      1  O13       -3.0230    6.4800   -3.4430 O.3     0  LIG0       -0.2176
      2  C19       -1.9970    5.5620   -3.7800 C.3     0  LIG0        0.2142
      3  C24       -2.5870    4.3370   -4.4480 C.3     0  LIG0        0.1836
      4  O18       -3.5270    3.7260   -3.5370 O.3     0  LIG0       -0.3236
      5  C20       -4.1030    2.5180   -4.0560 C.3     0  LIG0        0.3024
      6  O14       -4.9660    1.9850   -3.0760 O.3     0  LIG0       -0.1869
      7  C22       -4.8510    2.7830   -5.3590 C.3     0  LIG0        0.2434
      8  O16       -5.3670    1.5550   -5.8470 O.3     0  LIG0       -0.2148
      9  C21       -3.9220    3.4340   -6.3870 C.3     0  LIG0        0.2199
     10  O15       -4.6630    3.7660   -7.5450 O.3     0  LIG0       -0.2174
     11  C23       -3.2660    4.6750   -5.7910 C.3     0  LIG0        0.2144
     12  O17       -2.3180    5.2230   -6.6790 O.3     0  LIG0       -0.2176
@<TRIPOS>BOND
     1    10     9    1
     2    12    11    1
     3     9    11    1
     4     9     7    1
     5     8     7    1
     6    11     3    1
     7     7     5    1
     8     3     2    1
     9     3     4    1
    10     5     4    1
    11     5     6    1
    12     2     1    1
