@<TRIPOS>MOLECULE
/Users/xuhangdai/Desktop/Projects/OptimalTransport/extra_bio_ligands_boltz_af3/boltz_results_8w4x_sugars/8w4x_sugars_model_33_chainB.pdb
 12 12 0 0 0
SMALL
GASTEIGER

@<TRIPOS>ATOM
      1  O13       -0.4060    3.4940    9.2520 O.3     0  LIG0       -0.2176
      2  C19       -0.6000    4.0860    7.9830 C.3     0  LIG0        0.2142
      3  C24       -1.9370    4.7920    7.9330 C.3     0  LIG0        0.1836
      4  O18       -2.9740    3.8380    8.2490 O.3     0  LIG0       -0.3236
      5  C20       -4.2880    4.4020    8.1780 C.3     0  LIG0        0.3024
      6  O14       -5.2140    3.3820    8.4620 O.3     0  LIG0       -0.1869
      7  C22       -4.4350    5.5630    9.1520 C.3     0  LIG0        0.2434
      8  O16       -5.7390    6.1150    9.0360 O.3     0  LIG0       -0.2148
      9  C21       -3.3760    6.6270    8.8720 C.3     0  LIG0        0.2199
     10  O15       -3.4720    7.6570    9.8360 O.3     0  LIG0       -0.2174
     11  C23       -1.9890    5.9960    8.8900 C.3     0  LIG0        0.2144
     12  O17       -1.0080    6.9380    8.5340 O.3     0  LIG0       -0.2176
@<TRIPOS>BOND
     1     3     2    1
     2     3     4    1
     3     3    11    1
     4     2     1    1
     5     5     4    1
     6     5     6    1
     7     5     7    1
     8    12    11    1
     9     9    11    1
    10     9     7    1
    11     9    10    1
    12     8     7    1
