@<TRIPOS>MOLECULE
/Users/xuhangdai/Desktop/Projects/OptimalTransport/extra_bio_ligands_boltz_af3/boltz_results_8w4x_sugars/8w4x_sugars_model_4_chainB.pdb
 12 12 0 0 0
SMALL
GASTEIGER

@<TRIPOS>ATOM
      1  O13       -0.4390   -9.5000   -0.6470 O.3     0  LIG0       -0.2176
      2  C19       -0.7030   -8.4880    0.3130 C.3     0  LIG0        0.2142
      3  C24       -2.1240   -8.6150    0.8330 C.3     0  LIG0        0.1836
      4  O18       -3.0390   -8.4680   -0.2800 O.3     0  LIG0       -0.3236
      5  C20       -4.4210   -8.5300    0.1150 C.3     0  LIG0        0.3024
      6  O14       -5.2180   -8.3380   -1.0350 O.3     0  LIG0       -0.1869
      7  C22       -4.7350   -9.8660    0.7850 C.3     0  LIG0        0.2434
      8  O16       -6.0980   -9.8830    1.1830 O.3     0  LIG0       -0.2148
      9  C21       -3.8160  -10.0870    1.9880 C.3     0  LIG0        0.2199
     10  O15       -4.0600  -11.3700    2.5390 O.3     0  LIG0       -0.2174
     11  C23       -2.3550   -9.9530    1.5640 C.3     0  LIG0        0.2144
     12  O17       -1.4970  -10.0440    2.6770 O.3     0  LIG0       -0.2176
@<TRIPOS>BOND
     1     6     5    1
     2     1     2    1
     3     4     5    1
     4     4     3    1
     5     5     7    1
     6     2     3    1
     7     7     8    1
     8     7     9    1
     9     3    11    1
    10    11     9    1
    11    11    12    1
    12     9    10    1
