@<TRIPOS>MOLECULE
/Users/xuhangdai/Desktop/Projects/OptimalTransport/extra_bio_ligands_boltz_af3/boltz_results_8w4x_sugars/8w4x_sugars_model_10_chainB.pdb
 12 12 0 0 0
SMALL
GASTEIGER

@<TRIPOS>ATOM
      1  O13      -10.4210    0.4550   -5.0180 O.3     0  LIG0       -0.2176
      2  C19       -9.6740   -0.0930   -3.9420 C.3     0  LIG0        0.2142
      3  C24       -9.7720    0.8120   -2.7300 C.3     0  LIG0        0.1836
      4  O18       -9.2780    2.1200   -3.0910 O.3     0  LIG0       -0.3236
      5  C20       -9.2630    3.0320   -1.9860 C.3     0  LIG0        0.3024
      6  O14       -8.7290    4.2620   -2.4330 O.3     0  LIG0       -0.1869
      7  C22      -10.6600    3.2250   -1.4220 C.3     0  LIG0        0.2434
      8  O16      -10.5880    4.1060   -0.3120 O.3     0  LIG0       -0.2148
      9  C21      -11.2680    1.8840   -1.0210 C.3     0  LIG0        0.2199
     10  O15      -12.6030    2.0820   -0.6020 O.3     0  LIG0       -0.2174
     11  C23      -11.2080    0.9090   -2.1890 C.3     0  LIG0        0.2144
     12  O17      -11.6610   -0.3660   -1.8040 O.3     0  LIG0       -0.2176
@<TRIPOS>BOND
     1     1     2    1
     2     2     3    1
     3     4     3    1
     4     4     5    1
     5     3    11    1
     6     6     5    1
     7    11    12    1
     8    11     9    1
     9     5     7    1
    10     7     9    1
    11     7     8    1
    12     9    10    1
