@<TRIPOS>MOLECULE
/Users/xuhangdai/Desktop/Projects/OptimalTransport/extra_bio_ligands_boltz_af3/boltz_results_8w4x_sugars/8w4x_sugars_model_36_chainB.pdb
 12 12 0 0 0
SMALL
GASTEIGER

@<TRIPOS>ATOM
      1  O13        0.9400    7.2150   -6.5600 O.3     0  LIG0       -0.2176
      2  C19        0.3380    7.2230   -5.2850 C.3     0  LIG0        0.2142
      3  C24        1.1570    8.0460   -4.3130 C.3     0  LIG0        0.1836
      4  O18        2.5160    7.5490   -4.3110 O.3     0  LIG0       -0.3236
      5  C20        3.3650    8.2320   -3.3730 C.3     0  LIG0        0.3024
      6  O14        4.6440    7.6440   -3.4370 O.3     0  LIG0       -0.1869
      7  C22        3.4340    9.7240   -3.6780 C.3     0  LIG0        0.2434
      8  O16        4.2450   10.3670   -2.6990 O.3     0  LIG0       -0.2148
      9  C21        2.0300   10.3360   -3.7010 C.3     0  LIG0        0.2199
     10  O15        2.1130   11.6900   -4.0990 O.3     0  LIG0       -0.2174
     11  C23        1.1270    9.5500   -4.6520 C.3     0  LIG0        0.2144
     12  O17       -0.1950   10.0300   -4.5950 O.3     0  LIG0       -0.2176
@<TRIPOS>BOND
     1     1     2    1
     2     2     3    1
     3    11    12    1
     4    11     3    1
     5    11     9    1
     6     3     4    1
     7     4     5    1
     8    10     9    1
     9     9     7    1
    10     7     5    1
    11     7     8    1
    12     6     5    1
