@<TRIPOS>MOLECULE
/Users/xuhangdai/Desktop/Projects/OptimalTransport/extra_bio_ligands_boltz_af3/boltz_results_8w4x_sugars/8w4x_sugars_model_9_chainB.pdb
 12 12 0 0 0
SMALL
GASTEIGER

@<TRIPOS>ATOM
      1  O13        5.7860    0.4960    6.5530 O.3     0  LIG0       -0.2176
      2  C19        4.6450   -0.2850    6.2840 C.3     0  LIG0        0.2142
      3  C24        5.0460   -1.6150    5.6830 C.3     0  LIG0        0.1836
      4  O18        5.8640   -1.3710    4.5160 O.3     0  LIG0       -0.3236
      5  C20        6.2460   -2.5750    3.8360 C.3     0  LIG0        0.3024
      6  O14        7.0090   -2.2150    2.7070 O.3     0  LIG0       -0.1869
      7  C22        7.0310   -3.5020    4.7530 C.3     0  LIG0        0.2434
      8  O16        7.3370   -4.6930    4.0510 O.3     0  LIG0       -0.2148
      9  C21        6.2320   -3.8090    6.0210 C.3     0  LIG0        0.2199
     10  O15        7.0200   -4.5840    6.9020 O.3     0  LIG0       -0.2174
     11  C23        5.7930   -2.5080    6.6890 C.3     0  LIG0        0.2144
     12  O17        4.9760   -2.7660    7.8060 O.3     0  LIG0       -0.2176
@<TRIPOS>BOND
     1     6     5    1
     2     5     4    1
     3     5     7    1
     4     8     7    1
     5     4     3    1
     6     7     9    1
     7     3     2    1
     8     3    11    1
     9     9    11    1
    10     9    10    1
    11     2     1    1
    12    11    12    1
