@<TRIPOS>MOLECULE
/Users/xuhangdai/Desktop/Projects/OptimalTransport/extra_bio_ligands_boltz_af3/boltz_results_8w4x_sugars/8w4x_sugars_model_21_chainC.pdb
 23 24 0 0 0
SMALL
GASTEIGER

@<TRIPOS>ATOM
      1  O23       -7.6920   -4.7150    3.5510 O.3     0  LIG0       -0.2176
      2  C34       -6.6880   -5.5600    4.0800 C.3     0  LIG0        0.2142
      3  C44       -6.6770   -5.4420    5.5850 C.3     0  LIG0        0.1835
      4  O32       -7.9360   -5.8990    6.0790 O.3     0  LIG0       -0.3256
      5  C37       -8.0970   -5.7630    7.4820 C.3     0  LIG0        0.2695
      6  O31       -9.3330   -6.2950    7.8700 O.3     0  LIG0       -0.3257
      7  C43      -10.4820   -5.5160    7.5120 C.3     0  LIG0        0.1804
      8  C39      -11.2020   -6.1920    6.3470 C.3     0  LIG0        0.2168
      9  O27      -10.4180   -6.0940    5.1540 O.3     0  LIG0       -0.2175
     10  C41      -12.5670   -5.5570    6.1150 C.3     0  LIG0        0.2433
     11  O29      -13.2820   -6.2850    5.1250 O.3     0  LIG0       -0.2148
     12  C36      -13.3820   -5.5470    7.4050 C.3     0  LIG0        0.3023
     13  O25      -14.6160   -4.9010    7.2260 O.3     0  LIG0       -0.1869
     14  O33      -12.6380   -4.8370    8.4260 O.3     0  LIG0       -0.3237
     15  C45      -11.3820   -5.4390    8.7350 C.3     0  LIG0        0.1804
     16  C35      -10.7030   -4.6520    9.8470 C.3     0  LIG0        0.2141
     17  O24      -11.4600   -4.7140   11.0370 O.3     0  LIG0       -0.2176
     18  C40       -7.0080   -6.5110    8.2440 C.3     0  LIG0        0.2406
     19  O28       -7.1260   -6.2670    9.6440 O.3     0  LIG0       -0.2149
     20  C38       -5.6170   -6.0900    7.7530 C.3     0  LIG0        0.2198
     21  O26       -4.6290   -6.8970    8.3830 O.3     0  LIG0       -0.2174
     22  C42       -5.5410   -6.2310    6.2520 C.3     0  LIG0        0.2144
     23  O30       -4.2900   -5.7690    5.7650 O.3     0  LIG0       -0.2176
@<TRIPOS>BOND
     1     1     2    1
     2     2     3    1
     3    11    10    1
     4     9     8    1
     5     3     4    1
     6     3    22    1
     7    23    22    1
     8     4     5    1
     9    10     8    1
    10    10    12    1
    11    22    20    1
    12     8     7    1
    13    13    12    1
    14    12    14    1
    15     5     6    1
    16     5    18    1
    17     7     6    1
    18     7    15    1
    19    20    18    1
    20    20    21    1
    21    18    19    1
    22    14    15    1
    23    15    16    1
    24    16    17    1
