@<TRIPOS>MOLECULE
/Users/xuhangdai/Desktop/Projects/OptimalTransport/extra_bio_ligands_boltz_af3/boltz_results_8w4x_sugars/8w4x_sugars_model_7_chainC.pdb
 23 24 0 0 0
SMALL
GASTEIGER

@<TRIPOS>ATOM
      1  O23       -8.4250    1.4720   -1.4180 O.3     0  LIG0       -0.2176
      2  C34       -8.2270    2.6050   -2.2580 C.3     0  LIG0        0.2142
      3  C44       -8.9880    2.4180   -3.5640 C.3     0  LIG0        0.1835
      4  O32      -10.3980    2.5290   -3.3220 O.3     0  LIG0       -0.3256
      5  C37      -11.2820    2.4330   -4.4450 C.3     0  LIG0        0.2695
      6  O31      -11.4140    1.0520   -4.7840 O.3     0  LIG0       -0.3257
      7  C43      -12.6880    0.4660   -4.4450 C.3     0  LIG0        0.1804
      8  C39      -13.1450   -0.4250   -5.5780 C.3     0  LIG0        0.2168
      9  O27      -13.2840    0.3390   -6.7830 O.3     0  LIG0       -0.2175
     10  C41      -14.4760   -1.0890   -5.2200 C.3     0  LIG0        0.2433
     11  O29      -14.8580   -2.0140   -6.2220 O.3     0  LIG0       -0.2148
     12  C36      -14.3740   -1.8330   -3.8920 C.3     0  LIG0        0.3023
     13  O25      -15.6240   -2.3520   -3.5070 O.3     0  LIG0       -0.1869
     14  O33      -13.9170   -0.9370   -2.8690 O.3     0  LIG0       -0.3237
     15  C45      -12.6380   -0.3410   -3.1400 C.3     0  LIG0        0.1804
     16  C35      -12.2500    0.5140   -1.9450 C.3     0  LIG0        0.2141
     17  O24      -12.4020   -0.2140   -0.7420 O.3     0  LIG0       -0.2176
     18  C40      -10.8150    3.2410   -5.6580 C.3     0  LIG0        0.2406
     19  O28      -11.5240    2.8220   -6.8260 O.3     0  LIG0       -0.2149
     20  C38       -9.2980    3.1540   -5.9000 C.3     0  LIG0        0.2198
     21  O26       -8.9180    4.0990   -6.9020 O.3     0  LIG0       -0.2174
     22  C42       -8.5360    3.4190   -4.6250 C.3     0  LIG0        0.2144
     23  O30       -7.1380    3.3490   -4.8280 O.3     0  LIG0       -0.2176
@<TRIPOS>BOND
     1    21    20    1
     2    19    18    1
     3     9     8    1
     4    11    10    1
     5    20    18    1
     6    20    22    1
     7    18     5    1
     8     8    10    1
     9     8     7    1
    10    10    12    1
    11    23    22    1
    12     6     5    1
    13     6     7    1
    14    22     3    1
    15     5     4    1
    16     7    15    1
    17    12    13    1
    18    12    14    1
    19     3     4    1
    20     3     2    1
    21    15    14    1
    22    15    16    1
    23     2     1    1
    24    16    17    1
