@<TRIPOS>MOLECULE
/Users/xuhangdai/Desktop/Projects/OptimalTransport/extra_bio_ligands_boltz_af3/boltz_results_8w4x_sugars/8w4x_sugars_model_4_chainC.pdb
 23 24 0 0 0
SMALL
GASTEIGER

@<TRIPOS>ATOM
      1  O23       -9.1350   -0.3600   -3.5730 O.3     0  LIG0       -0.2176
      2  C34       -8.9360   -1.7420   -3.3490 C.3     0  LIG0        0.2142
      3  C44       -9.9270   -2.2360   -2.3250 C.3     0  LIG0        0.1835
      4  O32      -11.2440   -2.0380   -2.8420 O.3     0  LIG0       -0.3256
      5  C37      -12.2870   -2.4020   -1.9420 C.3     0  LIG0        0.2695
      6  O31      -13.5320   -2.2390   -2.5570 O.3     0  LIG0       -0.3257
      7  C43      -13.9850   -0.8880   -2.6860 C.3     0  LIG0        0.1804
      8  C39      -13.9780   -0.5040   -4.1660 C.3     0  LIG0        0.2168
      9  O27      -12.6300   -0.4020   -4.6460 O.3     0  LIG0       -0.2175
     10  C41      -14.7050    0.8210   -4.3810 C.3     0  LIG0        0.2433
     11  O29      -14.8270    1.0860   -5.7740 O.3     0  LIG0       -0.2148
     12  C36      -16.1020    0.7810   -3.7610 C.3     0  LIG0        0.3023
     13  O25      -16.7450    2.0250   -3.8740 O.3     0  LIG0       -0.1869
     14  O33      -15.9930    0.4570   -2.3530 O.3     0  LIG0       -0.3237
     15  C45      -15.3920   -0.8150   -2.1030 C.3     0  LIG0        0.1804
     16  C35      -15.3690   -1.0810   -0.5970 C.3     0  LIG0        0.2141
     17  O24      -16.6820   -1.2140   -0.0900 O.3     0  LIG0       -0.2176
     18  C40      -12.1720   -3.8610   -1.5130 C.3     0  LIG0        0.2406
     19  O28      -13.1700   -4.1680   -0.5390 O.3     0  LIG0       -0.2149
     20  C38      -10.7760   -4.1490   -0.9500 C.3     0  LIG0        0.2198
     21  O26      -10.6610   -5.5400   -0.6650 O.3     0  LIG0       -0.2174
     22  C42       -9.7260   -3.7150   -1.9460 C.3     0  LIG0        0.2144
     23  O30       -8.4230   -3.9040   -1.4160 O.3     0  LIG0       -0.2176
@<TRIPOS>BOND
     1    11    10    1
     2     9     8    1
     3    10     8    1
     4    10    12    1
     5     8     7    1
     6    13    12    1
     7    12    14    1
     8     1     2    1
     9     2     3    1
    10     4     3    1
    11     4     5    1
    12     7     6    1
    13     7    15    1
    14     6     5    1
    15    14    15    1
    16     3    22    1
    17    15    16    1
    18    22    23    1
    19    22    20    1
    20     5    18    1
    21    18    20    1
    22    18    19    1
    23    20    21    1
    24    16    17    1
