@<TRIPOS>MOLECULE
/Users/xuhangdai/Desktop/Projects/OptimalTransport/extra_bio_ligands_boltz_af3/boltz_results_8w4x_sugars/8w4x_sugars_model_26_chainC.pdb
 23 24 0 0 0
SMALL
GASTEIGER

@<TRIPOS>ATOM
      1  O23        1.2720   -8.7960    3.7940 O.3     0  LIG0       -0.2176
      2  C34        0.0860   -8.0670    4.0660 C.3     0  LIG0        0.2142
      3  C44       -1.1110   -9.0040    4.0120 C.3     0  LIG0        0.1835
      4  O32       -1.0430   -9.9170    5.1180 O.3     0  LIG0       -0.3256
      5  C37       -2.1070  -10.8690    5.2280 C.3     0  LIG0        0.2695
      6  O31       -1.9550  -11.8060    4.1610 O.3     0  LIG0       -0.3257
      7  C43       -1.4650  -13.1100    4.5230 C.3     0  LIG0        0.1804
      8  C39       -2.2130  -14.1360    3.7090 C.3     0  LIG0        0.2168
      9  O27       -3.6100  -14.0720    4.0040 O.3     0  LIG0       -0.2175
     10  C41       -1.6760  -15.5320    4.0020 C.3     0  LIG0        0.2433
     11  O29       -2.2940  -16.4850    3.1670 O.3     0  LIG0       -0.2148
     12  C36       -0.1730  -15.5970    3.7740 C.3     0  LIG0        0.3023
     13  O25        0.3360  -16.8530    4.1400 O.3     0  LIG0       -0.1869
     14  O33        0.4730  -14.5990    4.5700 O.3     0  LIG0       -0.3237
     15  C45        0.0430  -13.2620    4.2850 C.3     0  LIG0        0.1804
     16  C35        0.8590  -12.3200    5.1520 C.3     0  LIG0        0.2141
     17  O24        2.2320  -12.4830    4.8860 O.3     0  LIG0       -0.2176
     18  C40       -3.4780  -10.2000    5.1530 C.3     0  LIG0        0.2406
     19  O28       -4.4870  -11.2000    4.9980 O.3     0  LIG0       -0.2149
     20  C38       -3.5870   -9.1770    4.0120 C.3     0  LIG0        0.2198
     21  O26       -4.8050   -8.4490    4.1400 O.3     0  LIG0       -0.2174
     22  C42       -2.4220   -8.2160    4.0220 C.3     0  LIG0        0.2144
     23  O30       -2.4800   -7.3460    2.9180 O.3     0  LIG0       -0.2176
@<TRIPOS>BOND
     1    23    22    1
     2    11    10    1
     3     8    10    1
     4     8     9    1
     5     8     7    1
     6    12    10    1
     7    12    13    1
     8    12    14    1
     9     1     2    1
    10     3    22    1
    11     3     2    1
    12     3     4    1
    13    20    22    1
    14    20    21    1
    15    20    18    1
    16     6     7    1
    17     6     5    1
    18    15     7    1
    19    15    14    1
    20    15    16    1
    21    17    16    1
    22    19    18    1
    23     4     5    1
    24    18     5    1
