@<TRIPOS>MOLECULE
/Users/xuhangdai/Desktop/Projects/OptimalTransport/extra_bio_ligands_boltz_af3/boltz_results_8w4x_sugars/8w4x_sugars_model_1_chainC.pdb
 23 24 0 0 0
SMALL
GASTEIGER

@<TRIPOS>ATOM
      1  O23        4.3760    3.4620   -8.4850 O.3     0  LIG0       -0.2176
      2  C34        3.2590    2.9890   -9.2100 C.3     0  LIG0        0.2142
      3  C44        2.4460    4.1560   -9.7090 C.3     0  LIG0        0.1835
      4  O32        3.2720    4.9350  -10.5750 O.3     0  LIG0       -0.3256
      5  C37        2.6450    6.1030  -11.0890 C.3     0  LIG0        0.2695
      6  O31        3.5020    6.7460  -11.9840 O.3     0  LIG0       -0.3257
      7  C43        4.5920    7.4540  -11.3940 C.3     0  LIG0        0.1804
      8  C39        5.8810    6.7010  -11.7110 C.3     0  LIG0        0.2168
      9  O27        5.9320    5.4680  -10.9840 O.3     0  LIG0       -0.2175
     10  C41        7.0990    7.5520  -11.3610 C.3     0  LIG0        0.2433
     11  O29        8.2830    6.9060  -11.8110 O.3     0  LIG0       -0.2148
     12  C36        7.0100    8.9190  -12.0190 C.3     0  LIG0        0.3023
     13  O25        8.0890    9.7390  -11.6480 O.3     0  LIG0       -0.1869
     14  O33        5.7870    9.5670  -11.6000 O.3     0  LIG0       -0.3237
     15  C45        4.6090    8.8540  -11.9850 C.3     0  LIG0        0.1804
     16  C35        3.3810    9.6420  -11.5420 C.3     0  LIG0        0.2141
     17  O24        3.3390   10.9040  -12.1820 O.3     0  LIG0       -0.2176
     18  C40        1.3630    5.7760  -11.8420 C.3     0  LIG0        0.2406
     19  O28        0.7130    6.9780  -12.2460 O.3     0  LIG0       -0.2149
     20  C38        0.4250    4.9350  -10.9670 C.3     0  LIG0        0.2198
     21  O26       -0.7070    4.5410  -11.7380 O.3     0  LIG0       -0.2174
     22  C42        1.1640    3.7250  -10.4430 C.3     0  LIG0        0.2144
     23  O30        0.3390    2.9800   -9.5670 O.3     0  LIG0       -0.2176
@<TRIPOS>BOND
     1    19    18    1
     2    17    16    1
     3    12    13    1
     4    12    14    1
     5    12    10    1
     6    15    14    1
     7    15    16    1
     8    15     7    1
     9     6     7    1
    10     6     5    1
    11    18     5    1
    12    18    20    1
    13    11    10    1
    14    21    20    1
    15     8     7    1
    16     8    10    1
    17     8     9    1
    18     5     4    1
    19    20    22    1
    20     4     3    1
    21    22     3    1
    22    22    23    1
    23     3     2    1
    24     2     1    1
