@<TRIPOS>MOLECULE
/Users/xuhangdai/Desktop/Projects/OptimalTransport/extra_bio_ligands_boltz_af3/boltz_results_8w4x_sugars/8w4x_sugars_model_18_chainB.pdb
 12 12 0 0 0
SMALL
GASTEIGER

@<TRIPOS>ATOM
      1  O13        8.3460    2.1960   -4.9190 O.3     0  LIG0       -0.2176
      2  C19        7.3690    1.1910   -4.7160 C.3     0  LIG0        0.2142
      3  C24        6.2190    1.3760   -5.6840 C.3     0  LIG0        0.1836
      4  O18        5.7010    2.7130   -5.5310 O.3     0  LIG0       -0.3236
      5  C20        4.5750    2.9860   -6.3710 C.3     0  LIG0        0.3024
      6  O14        4.1410    4.3010   -6.1100 O.3     0  LIG0       -0.1869
      7  C22        4.9360    2.8130   -7.8400 C.3     0  LIG0        0.2434
      8  O16        3.7910    3.0660   -8.6300 O.3     0  LIG0       -0.2148
      9  C21        5.4760    1.4090   -8.0890 C.3     0  LIG0        0.2199
     10  O15        5.8870    1.2950   -9.4370 O.3     0  LIG0       -0.2174
     11  C23        6.6380    1.1210   -7.1460 C.3     0  LIG0        0.2144
     12  O17        7.0820   -0.2060   -7.2880 O.3     0  LIG0       -0.2176
@<TRIPOS>BOND
     1    10     9    1
     2     8     7    1
     3     9     7    1
     4     9    11    1
     5     7     5    1
     6    12    11    1
     7    11     3    1
     8     5     6    1
     9     5     4    1
    10     3     4    1
    11     3     2    1
    12     1     2    1
