@<TRIPOS>MOLECULE
/Users/xuhangdai/Desktop/Projects/OptimalTransport/extra_bio_ligands_boltz_af3/boltz_results_8w4x_sugars/8w4x_sugars_model_29_chainC.pdb
 23 24 0 0 0
SMALL
GASTEIGER

@<TRIPOS>ATOM
      1  O23        9.1700    3.3390   -0.0850 O.3     0  LIG0       -0.2176
      2  C34        8.2660    3.7000   -1.0980 C.3     0  LIG0        0.2142
      3  C44        8.8380    3.3400   -2.4710 C.3     0  LIG0        0.1835
      4  O32       10.0010    4.1350   -2.7320 O.3     0  LIG0       -0.3256
      5  C37       10.6420    3.9500   -3.9980 C.3     0  LIG0        0.2695
      6  O31        9.8080    4.5450   -4.9910 O.3     0  LIG0       -0.3257
      7  C43       10.2440    5.8320   -5.4840 C.3     0  LIG0        0.1804
      8  C39       10.0580    5.8630   -6.9800 C.3     0  LIG0        0.2168
      9  O27       10.8560    4.8480   -7.5930 O.3     0  LIG0       -0.2175
     10  C41       10.4350    7.2360   -7.5300 C.3     0  LIG0        0.2433
     11  O29       10.1590    7.3070   -8.9160 O.3     0  LIG0       -0.2148
     12  C36        9.6650    8.3450   -6.8260 C.3     0  LIG0        0.3023
     13  O25       10.0990    9.6110   -7.2620 O.3     0  LIG0       -0.1869
     14  O33        9.8770    8.2510   -5.4100 O.3     0  LIG0       -0.3237
     15  C45        9.4750    6.9940   -4.8400 C.3     0  LIG0        0.1804
     16  C35        9.6930    7.0660   -3.3370 C.3     0  LIG0        0.2141
     17  O24        8.8680    8.0630   -2.7760 O.3     0  LIG0       -0.2176
     18  C40       10.8790    2.4780   -4.3290 C.3     0  LIG0        0.2406
     19  O28       11.2130    2.3470   -5.7120 O.3     0  LIG0       -0.2149
     20  C38        9.6690    1.5850   -4.0030 C.3     0  LIG0        0.2198
     21  O26       10.0310    0.2140   -4.1400 O.3     0  LIG0       -0.2174
     22  C42        9.1640    1.8470   -2.6040 C.3     0  LIG0        0.2144
     23  O30        8.0460    1.0580   -2.3010 O.3     0  LIG0       -0.2176
@<TRIPOS>BOND
     1    11    10    1
     2     9     8    1
     3    10     8    1
     4    10    12    1
     5    13    12    1
     6     8     7    1
     7    12    14    1
     8    19    18    1
     9     7     6    1
    10     7    15    1
    11    14    15    1
    12     6     5    1
    13    15    16    1
    14    18    20    1
    15    18     5    1
    16    21    20    1
    17    20    22    1
    18     5     4    1
    19    16    17    1
    20     4     3    1
    21    22     3    1
    22    22    23    1
    23     3     2    1
    24     2     1    1
