@<TRIPOS>MOLECULE
/Users/xuhangdai/Desktop/Projects/OptimalTransport/extra_bio_ligands_boltz_af3/boltz_results_8w4x_sugars/8w4x_sugars_model_23_chainB.pdb
 12 12 0 0 0
SMALL
GASTEIGER

@<TRIPOS>ATOM
      1  O13        1.2230   -4.7550   -8.4800 O.3     0  LIG0       -0.2176
      2  C19        0.5510   -4.0380   -7.4700 C.3     0  LIG0        0.2142
      3  C24        0.2870   -2.6160   -7.9110 C.3     0  LIG0        0.1836
      4  O18        1.5530   -1.9800   -8.1940 O.3     0  LIG0       -0.3236
      5  C20        1.4120   -0.5970   -8.5600 C.3     0  LIG0        0.3024
      6  O14        2.7000   -0.0670   -8.7770 O.3     0  LIG0       -0.1869
      7  C22        0.5360   -0.4410   -9.7980 C.3     0  LIG0        0.2434
      8  O16        0.3850    0.9360  -10.0840 O.3     0  LIG0       -0.2148
      9  C21       -0.8260   -1.1010   -9.5820 C.3     0  LIG0        0.2199
     10  O15       -1.5800   -1.0350  -10.7760 O.3     0  LIG0       -0.2174
     11  C23       -0.6460   -2.5480   -9.1350 C.3     0  LIG0        0.2144
     12  O17       -1.8820   -3.1470   -8.8330 O.3     0  LIG0       -0.2176
@<TRIPOS>BOND
     1    10     9    1
     2     8     7    1
     3     7     9    1
     4     7     5    1
     5     9    11    1
     6    11    12    1
     7    11     3    1
     8     6     5    1
     9     5     4    1
    10     1     2    1
    11     4     3    1
    12     3     2    1
