@<TRIPOS>MOLECULE
/Users/xuhangdai/Desktop/Projects/OptimalTransport/extra_bio_ligands_boltz_af3/boltz_results_8w4x_sugars/8w4x_sugars_model_20_chainC.pdb
 23 24 0 0 0
SMALL
GASTEIGER

@<TRIPOS>ATOM
      1  O23        7.6020    1.7100   -3.7110 O.3     0  LIG0       -0.2176
      2  C34        6.7880    2.7600   -4.2120 C.3     0  LIG0        0.2142
      3  C44        7.3260    4.1040   -3.7320 C.3     0  LIG0        0.1835
      4  O32        8.6220    4.3380   -4.3100 O.3     0  LIG0       -0.3256
      5  C37        9.2750    5.5780   -4.0050 C.3     0  LIG0        0.2695
      6  O31        9.8200    5.4660   -2.6960 O.3     0  LIG0       -0.3257
      7  C43       11.2540    5.3550   -2.6210 C.3     0  LIG0        0.1804
      8  C39       11.7100    6.0370   -1.3550 C.3     0  LIG0        0.2168
      9  O27       11.3510    7.4230   -1.3840 O.3     0  LIG0       -0.2175
     10  C41       13.2220    5.8850   -1.1930 C.3     0  LIG0        0.2433
     11  O29       13.6450    6.4240    0.0460 O.3     0  LIG0       -0.2148
     12  C36       13.6310    4.4180   -1.2460 C.3     0  LIG0        0.3023
     13  O25       15.0290    4.2790   -1.1870 O.3     0  LIG0       -0.1869
     14  O33       13.1670    3.8340   -2.4710 O.3     0  LIG0       -0.3237
     15  C45       11.7420    3.8980   -2.6460 C.3     0  LIG0        0.1804
     16  C35       11.4010    3.1910   -3.9520 C.3     0  LIG0        0.2141
     17  O24       11.9030    1.8720   -3.9580 O.3     0  LIG0       -0.2176
     18  C40        8.3530    6.7960   -4.0990 C.3     0  LIG0        0.2406
     19  O28        8.9530    7.9130   -3.4350 O.3     0  LIG0       -0.2149
     20  C38        6.9460    6.5390   -3.5290 C.3     0  LIG0        0.2198
     21  O26        6.0890    7.6300   -3.8670 O.3     0  LIG0       -0.2174
     22  C42        6.3700    5.2470   -4.0650 C.3     0  LIG0        0.2144
     23  O30        5.0840    4.9970   -3.5460 O.3     0  LIG0       -0.2176
@<TRIPOS>BOND
     1     4     5    1
     2     4     3    1
     3     2     3    1
     4     2     1    1
     5    18     5    1
     6    18    20    1
     7    18    19    1
     8    22     3    1
     9    22    23    1
    10    22    20    1
    11     5     6    1
    12    17    16    1
    13    16    15    1
    14    21    20    1
    15     6     7    1
    16    15     7    1
    17    15    14    1
    18     7     8    1
    19    14    12    1
    20     9     8    1
    21     8    10    1
    22    12    10    1
    23    12    13    1
    24    10    11    1
