@<TRIPOS>MOLECULE
/Users/xuhangdai/Desktop/Projects/OptimalTransport/extra_bio_ligands_boltz_af3/boltz_results_8w4x_sugars/8w4x_sugars_model_29_chainB.pdb
 12 12 0 0 0
SMALL
GASTEIGER

@<TRIPOS>ATOM
      1  O13        6.3510   -5.7590    4.6340 O.3     0  LIG0       -0.2176
      2  C19        5.3370   -5.7950    3.6480 C.3     0  LIG0        0.2142
      3  C24        5.9430   -5.9530    2.2670 C.3     0  LIG0        0.1836
      4  O18        6.9100   -4.8980    2.0550 O.3     0  LIG0       -0.3236
      5  C20        7.4870   -4.9240    0.7390 C.3     0  LIG0        0.3024
      6  O14        8.3820   -3.8390    0.6370 O.3     0  LIG0       -0.1869
      7  C22        8.1980   -6.2500    0.4720 C.3     0  LIG0        0.2434
      8  O16        8.6970   -6.2500   -0.8600 O.3     0  LIG0       -0.2148
      9  C21        7.2410   -7.4270    0.6870 C.3     0  LIG0        0.2199
     10  O15        7.9490   -8.6450    0.5390 O.3     0  LIG0       -0.2174
     11  C23        6.6000   -7.3380    2.0720 C.3     0  LIG0        0.2144
     12  O17        5.6410   -8.3550    2.2470 O.3     0  LIG0       -0.2176
@<TRIPOS>BOND
     1     8     7    1
     2     7     9    1
     3     7     5    1
     4    10     9    1
     5     6     5    1
     6     9    11    1
     7     5     4    1
     8     4     3    1
     9    11    12    1
    10    11     3    1
    11     3     2    1
    12     2     1    1
