FATTY ACID-BINDING PROTEIN
     RDKit          3D

 58 57  0  0  0  0  0  0  0  0999 V2000
   -2.5893   -2.8226   -3.2381 C   0  0  0  0  0  0  0  0  0  0  0  0
   -1.6100   -2.1150   -4.1165 C   0  0  0  0  0  0  0  0  0  0  0  0
   -1.6111   -0.6168   -3.8975 C   0  0  0  0  0  0  0  0  0  0  0  0
   -1.2432   -0.3671   -2.4513 C   0  0  0  0  0  0  0  0  0  0  0  0
   -1.2122    1.0999   -2.1223 C   0  0  0  0  0  0  0  0  0  0  0  0
   -0.2338    1.8805   -2.9273 C   0  0  0  0  0  0  0  0  0  0  0  0
    1.1864    1.4669   -2.8003 C   0  0  0  0  0  0  0  0  0  0  0  0
    1.7111    1.5796   -1.3548 C   0  0  0  0  0  0  0  0  0  0  0  0
    3.1145    1.1475   -1.3691 C   0  0  0  0  0  0  0  0  0  0  0  0
    3.9589    1.1559   -0.1800 C   0  0  0  0  0  0  0  0  0  0  0  0
    3.7124    0.3333    1.0112 C   0  0  0  0  0  0  0  0  0  0  0  0
    2.4111    0.5898    1.7302 C   0  0  0  0  0  0  0  0  0  0  0  0
    2.3316   -0.2586    2.9849 C   0  0  0  0  0  0  0  0  0  0  0  0
    1.1318    0.0078    3.7889 C   0  0  0  0  0  0  0  0  0  0  0  0
   -0.2374   -0.1930    3.3461 C   0  0  0  0  0  0  0  0  0  0  0  0
   -0.8512    0.5466    2.2331 C   0  0  0  0  0  0  0  0  0  0  0  0
   -2.3482    0.0951    2.1100 C   0  0  0  0  0  0  0  0  0  0  0  0
   -3.0120    0.8294    0.9948 C   0  0  0  0  0  0  0  0  0  0  0  0
   -3.8983   -2.3823   -3.4649 O   0  0  0  0  0  0  0  0  0  0  0  0
   -2.5944   -4.1791   -3.6298 O   0  0  0  0  0  0  0  0  0  0  0  0
   -2.3578   -2.7844   -2.1638 H   0  0  0  0  0  0  0  0  0  0  0  0
   -0.5887   -2.4996   -3.8785 H   0  0  0  0  0  0  0  0  0  0  0  0
   -1.8387   -2.3659   -5.1733 H   0  0  0  0  0  0  0  0  0  0  0  0
   -2.6580   -0.2778   -4.1146 H   0  0  0  0  0  0  0  0  0  0  0  0
   -0.8881   -0.1390   -4.5919 H   0  0  0  0  0  0  0  0  0  0  0  0
   -0.3356   -0.9184   -2.2258 H   0  0  0  0  0  0  0  0  0  0  0  0
   -2.0925   -0.7937   -1.8443 H   0  0  0  0  0  0  0  0  0  0  0  0
   -1.0274    1.2585   -1.0418 H   0  0  0  0  0  0  0  0  0  0  0  0
   -2.2213    1.5088   -2.3375 H   0  0  0  0  0  0  0  0  0  0  0  0
   -0.4933    1.9145   -3.9851 H   0  0  0  0  0  0  0  0  0  0  0  0
   -0.2940    2.9398   -2.5533 H   0  0  0  0  0  0  0  0  0  0  0  0
    1.4200    0.4645   -3.1927 H   0  0  0  0  0  0  0  0  0  0  0  0
    1.7966    2.1911   -3.3803 H   0  0  0  0  0  0  0  0  0  0  0  0
    0.9738    1.0765   -0.7636 H   0  0  0  0  0  0  0  0  0  0  0  0
    1.6918    2.6623   -1.0456 H   0  0  0  0  0  0  0  0  0  0  0  0
    3.6359    1.8342   -2.1324 H   0  0  0  0  0  0  0  0  0  0  0  0
    3.2492    0.1408   -1.8793 H   0  0  0  0  0  0  0  0  0  0  0  0
    4.2269    2.2392    0.1309 H   0  0  0  0  0  0  0  0  0  0  0  0
    5.0154    0.8307   -0.5387 H   0  0  0  0  0  0  0  0  0  0  0  0
    3.7029   -0.7514    0.6572 H   0  0  0  0  0  0  0  0  0  0  0  0
    4.5781    0.3552    1.7211 H   0  0  0  0  0  0  0  0  0  0  0  0
    2.3144    1.6222    1.9852 H   0  0  0  0  0  0  0  0  0  0  0  0
    1.6378    0.1362    1.0686 H   0  0  0  0  0  0  0  0  0  0  0  0
    3.2852   -0.1600    3.5777 H   0  0  0  0  0  0  0  0  0  0  0  0
    2.2510   -1.3405    2.6322 H   0  0  0  0  0  0  0  0  0  0  0  0
    1.2797   -0.5226    4.7995 H   0  0  0  0  0  0  0  0  0  0  0  0
    1.1710    1.1120    4.1704 H   0  0  0  0  0  0  0  0  0  0  0  0
   -0.9010    0.0365    4.2617 H   0  0  0  0  0  0  0  0  0  0  0  0
   -0.4773   -1.2963    3.1899 H   0  0  0  0  0  0  0  0  0  0  0  0
   -0.4913    0.3776    1.2142 H   0  0  0  0  0  0  0  0  0  0  0  0
   -0.9516    1.6416    2.3974 H   0  0  0  0  0  0  0  0  0  0  0  0
   -2.8807    0.3253    3.0545 H   0  0  0  0  0  0  0  0  0  0  0  0
   -2.3842   -0.9832    1.9364 H   0  0  0  0  0  0  0  0  0  0  0  0
   -2.5142    1.7981    0.7625 H   0  0  0  0  0  0  0  0  0  0  0  0
   -4.0723    1.1228    1.2496 H   0  0  0  0  0  0  0  0  0  0  0  0
   -3.1180    0.2314    0.0664 H   0  0  0  0  0  0  0  0  0  0  0  0
   -4.3996   -2.4980   -2.6135 H   0  0  0  0  0  0  0  0  0  0  0  0
   -2.0104   -4.7229   -3.0243 H   0  0  0  0  0  0  0  0  0  0  0  0
  1  2  1  0
  1 19  1  0
  1 20  1  0
  2  3  1  0
  3  4  1  0
  4  5  1  0
  5  6  1  0
  6  7  1  0
  7  8  1  0
  8  9  1  0
  9 10  1  0
 10 11  1  0
 11 12  1  0
 12 13  1  0
 13 14  1  0
 14 15  1  0
 15 16  1  0
 16 17  1  0
 17 18  1  0
  1 21  1  0
  2 22  1  0
  2 23  1  0
  3 24  1  0
  3 25  1  0
  4 26  1  0
  4 27  1  0
  5 28  1  0
  5 29  1  0
  6 30  1  0
  6 31  1  0
  7 32  1  0
  7 33  1  0
  8 34  1  0
  8 35  1  0
  9 36  1  0
  9 37  1  0
 10 38  1  0
 10 39  1  0
 11 40  1  0
 11 41  1  0
 12 42  1  0
 12 43  1  0
 13 44  1  0
 13 45  1  0
 14 46  1  0
 14 47  1  0
 15 48  1  0
 15 49  1  0
 16 50  1  0
 16 51  1  0
 17 52  1  0
 17 53  1  0
 18 54  1  0
 18 55  1  0
 18 56  1  0
 19 57  1  0
 20 58  1  0
M  END
$$$$
FATTY ACID-BINDING PROTEIN
     RDKit          3D

 58 57  0  0  0  0  0  0  0  0999 V2000
   -1.6201    3.4180    4.4717 C   0  0  0  0  0  0  0  0  0  0  0  0
   -0.9557    4.0294    3.2904 C   0  0  0  0  0  0  0  0  0  0  0  0
   -0.7704    3.1245    2.1248 C   0  0  0  0  0  0  0  0  0  0  0  0
    0.0726    1.9171    2.3539 C   0  0  0  0  0  0  0  0  0  0  0  0
    1.4775    2.3177    2.7659 C   0  0  0  0  0  0  0  0  0  0  0  0
    2.3528    1.1328    3.0087 C   0  0  0  0  0  0  0  0  0  0  0  0
    2.5372    0.2277    1.8380 C   0  0  0  0  0  0  0  0  0  0  0  0
    3.1561    0.9526    0.6895 C   0  0  0  0  0  0  0  0  0  0  0  0
    3.3680    0.0779   -0.5272 C   0  0  0  0  0  0  0  0  0  0  0  0
    2.1112   -0.5129   -1.0757 C   0  0  0  0  0  0  0  0  0  0  0  0
    2.4306   -1.3571   -2.2729 C   0  0  0  0  0  0  0  0  0  0  0  0
    1.2018   -1.9931   -2.8882 C   0  0  0  0  0  0  0  0  0  0  0  0
    0.4730   -2.8861   -1.9483 C   0  0  0  0  0  0  0  0  0  0  0  0
   -0.7742   -3.5337   -2.5470 C   0  0  0  0  0  0  0  0  0  0  0  0
   -0.4172   -4.3704   -3.7313 C   0  0  0  0  0  0  0  0  0  0  0  0
   -1.5303   -5.0817   -4.3784 C   0  0  0  0  0  0  0  0  0  0  0  0
   -2.6590   -4.3349   -4.9580 C   0  0  0  0  0  0  0  0  0  0  0  0
   -3.5126   -3.5013   -4.0927 C   0  0  0  0  0  0  0  0  0  0  0  0
   -0.9384    2.3506    4.9849 O   0  0  0  0  0  0  0  0  0  0  0  0
   -1.6863    4.3812    5.5053 O   0  0  0  0  0  0  0  0  0  0  0  0
   -2.6785    3.1388    4.2800 H   0  0  0  0  0  0  0  0  0  0  0  0
   -1.6177    4.8717    2.9309 H   0  0  0  0  0  0  0  0  0  0  0  0
    0.0174    4.4833    3.5852 H   0  0  0  0  0  0  0  0  0  0  0  0
   -0.3263    3.7139    1.2904 H   0  0  0  0  0  0  0  0  0  0  0  0
   -1.7951    2.7901    1.7931 H   0  0  0  0  0  0  0  0  0  0  0  0
    0.2078    1.4314    1.3453 H   0  0  0  0  0  0  0  0  0  0  0  0
   -0.2985    1.1995    3.0938 H   0  0  0  0  0  0  0  0  0  0  0  0
    1.3983    2.9027    3.7006 H   0  0  0  0  0  0  0  0  0  0  0  0
    1.9261    2.9559    1.9745 H   0  0  0  0  0  0  0  0  0  0  0  0
    2.0435    0.5850    3.9302 H   0  0  0  0  0  0  0  0  0  0  0  0
    3.3706    1.5466    3.2651 H   0  0  0  0  0  0  0  0  0  0  0  0
    3.2313   -0.5866    2.1677 H   0  0  0  0  0  0  0  0  0  0  0  0
    1.5723   -0.2514    1.5315 H   0  0  0  0  0  0  0  0  0  0  0  0
    2.5172    1.8123    0.4001 H   0  0  0  0  0  0  0  0  0  0  0  0
    4.1660    1.2874    1.0092 H   0  0  0  0  0  0  0  0  0  0  0  0
    3.8079    0.7451   -1.3089 H   0  0  0  0  0  0  0  0  0  0  0  0
    4.0843   -0.7159   -0.3018 H   0  0  0  0  0  0  0  0  0  0  0  0
    1.5086   -1.0477   -0.3438 H   0  0  0  0  0  0  0  0  0  0  0  0
    1.4838    0.3542   -1.4297 H   0  0  0  0  0  0  0  0  0  0  0  0
    3.1697   -2.1427   -2.0419 H   0  0  0  0  0  0  0  0  0  0  0  0
    2.8782   -0.7393   -3.0806 H   0  0  0  0  0  0  0  0  0  0  0  0
    1.6108   -2.6259   -3.7299 H   0  0  0  0  0  0  0  0  0  0  0  0
    0.5715   -1.2202   -3.3262 H   0  0  0  0  0  0  0  0  0  0  0  0
    1.0949   -3.7407   -1.6115 H   0  0  0  0  0  0  0  0  0  0  0  0
    0.1212   -2.3680   -1.0417 H   0  0  0  0  0  0  0  0  0  0  0  0
   -1.1865   -4.1958   -1.7600 H   0  0  0  0  0  0  0  0  0  0  0  0
   -1.5359   -2.7481   -2.7380 H   0  0  0  0  0  0  0  0  0  0  0  0
    0.3448   -5.1190   -3.3435 H   0  0  0  0  0  0  0  0  0  0  0  0
    0.1587   -3.7968   -4.5023 H   0  0  0  0  0  0  0  0  0  0  0  0
   -1.0952   -5.6926   -5.2398 H   0  0  0  0  0  0  0  0  0  0  0  0
   -1.8607   -5.8973   -3.6763 H   0  0  0  0  0  0  0  0  0  0  0  0
   -2.2884   -3.6929   -5.8095 H   0  0  0  0  0  0  0  0  0  0  0  0
   -3.3216   -5.0896   -5.4678 H   0  0  0  0  0  0  0  0  0  0  0  0
   -3.6024   -3.7719   -3.0431 H   0  0  0  0  0  0  0  0  0  0  0  0
   -4.5901   -3.5723   -4.4779 H   0  0  0  0  0  0  0  0  0  0  0  0
   -3.3181   -2.4027   -4.1875 H   0  0  0  0  0  0  0  0  0  0  0  0
   -1.4897    1.6378    5.3908 H   0  0  0  0  0  0  0  0  0  0  0  0
   -2.4392    4.1503    6.1049 H   0  0  0  0  0  0  0  0  0  0  0  0
  1  2  1  0
  1 19  1  0
  1 20  1  0
  2  3  1  0
  3  4  1  0
  4  5  1  0
  5  6  1  0
  6  7  1  0
  7  8  1  0
  8  9  1  0
  9 10  1  0
 10 11  1  0
 11 12  1  0
 12 13  1  0
 13 14  1  0
 14 15  1  0
 15 16  1  0
 16 17  1  0
 17 18  1  0
  1 21  1  0
  2 22  1  0
  2 23  1  0
  3 24  1  0
  3 25  1  0
  4 26  1  0
  4 27  1  0
  5 28  1  0
  5 29  1  0
  6 30  1  0
  6 31  1  0
  7 32  1  0
  7 33  1  0
  8 34  1  0
  8 35  1  0
  9 36  1  0
  9 37  1  0
 10 38  1  0
 10 39  1  0
 11 40  1  0
 11 41  1  0
 12 42  1  0
 12 43  1  0
 13 44  1  0
 13 45  1  0
 14 46  1  0
 14 47  1  0
 15 48  1  0
 15 49  1  0
 16 50  1  0
 16 51  1  0
 17 52  1  0
 17 53  1  0
 18 54  1  0
 18 55  1  0
 18 56  1  0
 19 57  1  0
 20 58  1  0
M  END
$$$$
FATTY ACID-BINDING PROTEIN
     RDKit          3D

 58 57  0  0  0  0  0  0  0  0999 V2000
    3.1811   -4.7549   -0.5061 C   0  0  0  0  0  0  0  0  0  0  0  0
    2.0217   -4.5940   -1.4335 C   0  0  0  0  0  0  0  0  0  0  0  0
    1.3477   -3.2528   -1.3555 C   0  0  0  0  0  0  0  0  0  0  0  0
    0.8190   -3.0269    0.0167 C   0  0  0  0  0  0  0  0  0  0  0  0
    0.1113   -1.7033    0.1722 C   0  0  0  0  0  0  0  0  0  0  0  0
    1.0091   -0.5030   -0.1212 C   0  0  0  0  0  0  0  0  0  0  0  0
    2.1778   -0.4206    0.7515 C   0  0  0  0  0  0  0  0  0  0  0  0
    3.1870    0.6190    0.5126 C   0  0  0  0  0  0  0  0  0  0  0  0
    3.0221    2.0490    0.5148 C   0  0  0  0  0  0  0  0  0  0  0  0
    2.2748    2.8884   -0.3927 C   0  0  0  0  0  0  0  0  0  0  0  0
    0.8364    2.8924   -0.6369 C   0  0  0  0  0  0  0  0  0  0  0  0
   -0.0107    3.1723    0.5698 C   0  0  0  0  0  0  0  0  0  0  0  0
   -1.4948    3.2165    0.2933 C   0  0  0  0  0  0  0  0  0  0  0  0
   -2.0701    1.9416   -0.2497 C   0  0  0  0  0  0  0  0  0  0  0  0
   -3.5533    2.0436   -0.4989 C   0  0  0  0  0  0  0  0  0  0  0  0
   -4.4121    2.3087    0.6674 C   0  0  0  0  0  0  0  0  0  0  0  0
   -4.4916    1.3187    1.7572 C   0  0  0  0  0  0  0  0  0  0  0  0
   -3.2851    0.9442    2.5151 C   0  0  0  0  0  0  0  0  0  0  0  0
    4.1589   -3.8084   -0.7675 O   0  0  0  0  0  0  0  0  0  0  0  0
    3.7252   -6.0351   -0.7243 O   0  0  0  0  0  0  0  0  0  0  0  0
    2.8428   -4.6546    0.5321 H   0  0  0  0  0  0  0  0  0  0  0  0
    1.3132   -5.4255   -1.2049 H   0  0  0  0  0  0  0  0  0  0  0  0
    2.3734   -4.8170   -2.4830 H   0  0  0  0  0  0  0  0  0  0  0  0
    0.4562   -3.3238   -2.0471 H   0  0  0  0  0  0  0  0  0  0  0  0
    2.0027   -2.4323   -1.7214 H   0  0  0  0  0  0  0  0  0  0  0  0
    0.0463   -3.7977    0.2195 H   0  0  0  0  0  0  0  0  0  0  0  0
    1.5859   -3.1559    0.8254 H   0  0  0  0  0  0  0  0  0  0  0  0
   -0.7110   -1.6697   -0.5646 H   0  0  0  0  0  0  0  0  0  0  0  0
   -0.3000   -1.6391    1.1722 H   0  0  0  0  0  0  0  0  0  0  0  0
    0.2962    0.3426    0.1666 H   0  0  0  0  0  0  0  0  0  0  0  0
    1.1869   -0.4065   -1.1881 H   0  0  0  0  0  0  0  0  0  0  0  0
    2.7366   -1.4264    0.6534 H   0  0  0  0  0  0  0  0  0  0  0  0
    1.9015   -0.4714    1.8546 H   0  0  0  0  0  0  0  0  0  0  0  0
    3.7552    0.2934   -0.4763 H   0  0  0  0  0  0  0  0  0  0  0  0
    4.1042    0.4088    1.2283 H   0  0  0  0  0  0  0  0  0  0  0  0
    2.8061    2.3289    1.6235 H   0  0  0  0  0  0  0  0  0  0  0  0
    4.1173    2.4765    0.4869 H   0  0  0  0  0  0  0  0  0  0  0  0
    2.5314    4.0023   -0.1501 H   0  0  0  0  0  0  0  0  0  0  0  0
    2.8380    2.8330   -1.4124 H   0  0  0  0  0  0  0  0  0  0  0  0
    0.6481    3.8177   -1.3206 H   0  0  0  0  0  0  0  0  0  0  0  0
    0.3877    2.0972   -1.2288 H   0  0  0  0  0  0  0  0  0  0  0  0
    0.2510    4.1841    0.9819 H   0  0  0  0  0  0  0  0  0  0  0  0
    0.2258    2.4771    1.4145 H   0  0  0  0  0  0  0  0  0  0  0  0
   -1.9986    3.4713    1.2302 H   0  0  0  0  0  0  0  0  0  0  0  0
   -1.7082    4.0654   -0.4202 H   0  0  0  0  0  0  0  0  0  0  0  0
   -1.9013    1.1426    0.4637 H   0  0  0  0  0  0  0  0  0  0  0  0
   -1.5964    1.7222   -1.2465 H   0  0  0  0  0  0  0  0  0  0  0  0
   -3.9296    1.0874   -0.9737 H   0  0  0  0  0  0  0  0  0  0  0  0
   -3.7212    2.7991   -1.3203 H   0  0  0  0  0  0  0  0  0  0  0  0
   -5.4720    2.4024    0.2616 H   0  0  0  0  0  0  0  0  0  0  0  0
   -4.1660    3.3037    1.1221 H   0  0  0  0  0  0  0  0  0  0  0  0
   -5.2478    1.7488    2.4981 H   0  0  0  0  0  0  0  0  0  0  0  0
   -4.9982    0.3622    1.4433 H   0  0  0  0  0  0  0  0  0  0  0  0
   -3.6412    0.7286    3.5837 H   0  0  0  0  0  0  0  0  0  0  0  0
   -2.8512   -0.0453    2.2261 H   0  0  0  0  0  0  0  0  0  0  0  0
   -2.5276    1.7304    2.6761 H   0  0  0  0  0  0  0  0  0  0  0  0
    4.2149   -3.2021    0.0088 H   0  0  0  0  0  0  0  0  0  0  0  0
    3.1084   -6.6459   -1.1867 H   0  0  0  0  0  0  0  0  0  0  0  0
  1  2  1  0
  1 19  1  0
  1 20  1  0
  2  3  1  0
  3  4  1  0
  4  5  1  0
  5  6  1  0
  6  7  1  0
  7  8  1  0
  8  9  1  0
  9 10  1  0
 10 11  1  0
 11 12  1  0
 12 13  1  0
 13 14  1  0
 14 15  1  0
 15 16  1  0
 16 17  1  0
 17 18  1  0
  1 21  1  0
  2 22  1  0
  2 23  1  0
  3 24  1  0
  3 25  1  0
  4 26  1  0
  4 27  1  0
  5 28  1  0
  5 29  1  0
  6 30  1  0
  6 31  1  0
  7 32  1  0
  7 33  1  0
  8 34  1  0
  8 35  1  0
  9 36  1  0
  9 37  1  0
 10 38  1  0
 10 39  1  0
 11 40  1  0
 11 41  1  0
 12 42  1  0
 12 43  1  0
 13 44  1  0
 13 45  1  0
 14 46  1  0
 14 47  1  0
 15 48  1  0
 15 49  1  0
 16 50  1  0
 16 51  1  0
 17 52  1  0
 17 53  1  0
 18 54  1  0
 18 55  1  0
 18 56  1  0
 19 57  1  0
 20 58  1  0
M  END
$$$$
FATTY ACID-BINDING PROTEIN
     RDKit          3D

 58 57  0  0  0  0  0  0  0  0999 V2000
   -1.6971   -0.3442    4.7579 C   0  0  0  0  0  0  0  0  0  0  0  0
   -2.0905    0.4184    3.5115 C   0  0  0  0  0  0  0  0  0  0  0  0
   -1.7775   -0.4430    2.2548 C   0  0  0  0  0  0  0  0  0  0  0  0
   -2.1533    0.2826    1.0301 C   0  0  0  0  0  0  0  0  0  0  0  0
   -2.0370   -0.3903   -0.2500 C   0  0  0  0  0  0  0  0  0  0  0  0
   -0.7823   -0.9414   -0.8031 C   0  0  0  0  0  0  0  0  0  0  0  0
   -0.1444   -2.0828   -0.1186 C   0  0  0  0  0  0  0  0  0  0  0  0
    1.0448   -2.6647   -0.7626 C   0  0  0  0  0  0  0  0  0  0  0  0
    2.2969   -1.9866   -1.0279 C   0  0  0  0  0  0  0  0  0  0  0  0
    2.3980   -0.8562   -1.9629 C   0  0  0  0  0  0  0  0  0  0  0  0
    3.8674   -0.4251   -2.0230 C   0  0  0  0  0  0  0  0  0  0  0  0
    4.0926    0.7474   -2.8789 C   0  0  0  0  0  0  0  0  0  0  0  0
    3.7907    2.1220   -2.5119 C   0  0  0  0  0  0  0  0  0  0  0  0
    2.5251    2.6178   -1.9403 C   0  0  0  0  0  0  0  0  0  0  0  0
    2.3035    2.2858   -0.5010 C   0  0  0  0  0  0  0  0  0  0  0  0
    0.9380    2.7969   -0.0170 C   0  0  0  0  0  0  0  0  0  0  0  0
    0.8070    4.2861   -0.1419 C   0  0  0  0  0  0  0  0  0  0  0  0
   -0.5832    4.6534    0.3826 C   0  0  0  0  0  0  0  0  0  0  0  0
   -1.9515    0.3711    5.9121 O   0  0  0  0  0  0  0  0  0  0  0  0
   -2.2837   -1.6061    4.7799 O   0  0  0  0  0  0  0  0  0  0  0  0
   -0.5819   -0.5054    4.7282 H   0  0  0  0  0  0  0  0  0  0  0  0
   -1.5330    1.3562    3.4501 H   0  0  0  0  0  0  0  0  0  0  0  0
   -3.1630    0.6273    3.5490 H   0  0  0  0  0  0  0  0  0  0  0  0
   -0.6582   -0.4860    2.3181 H   0  0  0  0  0  0  0  0  0  0  0  0
   -2.1725   -1.4491    2.3570 H   0  0  0  0  0  0  0  0  0  0  0  0
   -3.1831    0.7398    1.1811 H   0  0  0  0  0  0  0  0  0  0  0  0
   -1.5137    1.2240    0.9886 H   0  0  0  0  0  0  0  0  0  0  0  0
   -2.4433    0.3150   -1.0472 H   0  0  0  0  0  0  0  0  0  0  0  0
   -2.7997   -1.2468   -0.3189 H   0  0  0  0  0  0  0  0  0  0  0  0
   -0.0616   -0.0654   -0.9020 H   0  0  0  0  0  0  0  0  0  0  0  0
   -0.9817   -1.2458   -1.8550 H   0  0  0  0  0  0  0  0  0  0  0  0
   -0.9555   -2.9118   -0.0956 H   0  0  0  0  0  0  0  0  0  0  0  0
    0.0505   -1.9390    0.9776 H   0  0  0  0  0  0  0  0  0  0  0  0
    1.3181   -3.6072   -0.1381 H   0  0  0  0  0  0  0  0  0  0  0  0
    0.7083   -3.1490   -1.7658 H   0  0  0  0  0  0  0  0  0  0  0  0
    2.7975   -1.6742   -0.0453 H   0  0  0  0  0  0  0  0  0  0  0  0
    3.0379   -2.7918   -1.3695 H   0  0  0  0  0  0  0  0  0  0  0  0
    1.7658   -0.0413   -1.8757 H   0  0  0  0  0  0  0  0  0  0  0  0
    2.1504   -1.3142   -3.0004 H   0  0  0  0  0  0  0  0  0  0  0  0
    4.4048   -1.3371   -2.4013 H   0  0  0  0  0  0  0  0  0  0  0  0
    4.2305   -0.2531   -0.9684 H   0  0  0  0  0  0  0  0  0  0  0  0
    3.6356    0.5316   -3.9401 H   0  0  0  0  0  0  0  0  0  0  0  0
    5.2158    0.7636   -3.2075 H   0  0  0  0  0  0  0  0  0  0  0  0
    4.6590    2.4904   -1.8262 H   0  0  0  0  0  0  0  0  0  0  0  0
    4.0306    2.7688   -3.4608 H   0  0  0  0  0  0  0  0  0  0  0  0
    1.6409    2.2405   -2.5351 H   0  0  0  0  0  0  0  0  0  0  0  0
    2.4833    3.7476   -2.0216 H   0  0  0  0  0  0  0  0  0  0  0  0
    3.0991    2.8943    0.1024 H   0  0  0  0  0  0  0  0  0  0  0  0
    2.4183    1.2578   -0.2032 H   0  0  0  0  0  0  0  0  0  0  0  0
    0.7981    2.5266    1.0485 H   0  0  0  0  0  0  0  0  0  0  0  0
    0.1656    2.2963   -0.6314 H   0  0  0  0  0  0  0  0  0  0  0  0
    1.5245    4.7895    0.5153 H   0  0  0  0  0  0  0  0  0  0  0  0
    0.8984    4.6333   -1.1914 H   0  0  0  0  0  0  0  0  0  0  0  0
   -1.2366    3.7584    0.3919 H   0  0  0  0  0  0  0  0  0  0  0  0
   -1.0615    5.3648   -0.3510 H   0  0  0  0  0  0  0  0  0  0  0  0
   -0.5411    5.1449    1.3678 H   0  0  0  0  0  0  0  0  0  0  0  0
   -2.6266    1.0909    5.7099 H   0  0  0  0  0  0  0  0  0  0  0  0
   -2.7685   -1.7013    5.6587 H   0  0  0  0  0  0  0  0  0  0  0  0
  1  2  1  0
  1 19  1  0
  1 20  1  0
  2  3  1  0
  3  4  1  0
  4  5  1  0
  5  6  1  0
  6  7  1  0
  7  8  1  0
  8  9  1  0
  9 10  1  0
 10 11  1  0
 11 12  1  0
 12 13  1  0
 13 14  1  0
 14 15  1  0
 15 16  1  0
 16 17  1  0
 17 18  1  0
  1 21  1  0
  2 22  1  0
  2 23  1  0
  3 24  1  0
  3 25  1  0
  4 26  1  0
  4 27  1  0
  5 28  1  0
  5 29  1  0
  6 30  1  0
  6 31  1  0
  7 32  1  0
  7 33  1  0
  8 34  1  0
  8 35  1  0
  9 36  1  0
  9 37  1  0
 10 38  1  0
 10 39  1  0
 11 40  1  0
 11 41  1  0
 12 42  1  0
 12 43  1  0
 13 44  1  0
 13 45  1  0
 14 46  1  0
 14 47  1  0
 15 48  1  0
 15 49  1  0
 16 50  1  0
 16 51  1  0
 17 52  1  0
 17 53  1  0
 18 54  1  0
 18 55  1  0
 18 56  1  0
 19 57  1  0
 20 58  1  0
M  END
$$$$
FATTY ACID-BINDING PROTEIN
     RDKit          3D

 58 57  0  0  0  0  0  0  0  0999 V2000
   -4.3441    3.4507    0.5182 C   0  0  0  0  0  0  0  0  0  0  0  0
   -3.7431    2.2284   -0.1444 C   0  0  0  0  0  0  0  0  0  0  0  0
   -3.5275    1.1962    0.9706 C   0  0  0  0  0  0  0  0  0  0  0  0
   -2.9350   -0.0792    0.4763 C   0  0  0  0  0  0  0  0  0  0  0  0
   -2.7029   -1.1256    1.5291 C   0  0  0  0  0  0  0  0  0  0  0  0
   -1.7814   -0.7048    2.6141 C   0  0  0  0  0  0  0  0  0  0  0  0
   -0.3918   -0.3422    2.0880 C   0  0  0  0  0  0  0  0  0  0  0  0
    0.4745    0.0699    3.2379 C   0  0  0  0  0  0  0  0  0  0  0  0
    1.8799    0.4531    2.9022 C   0  0  0  0  0  0  0  0  0  0  0  0
    2.1365    1.5851    2.0333 C   0  0  0  0  0  0  0  0  0  0  0  0
    1.7238    1.8457    0.6857 C   0  0  0  0  0  0  0  0  0  0  0  0
    2.0006    1.1678   -0.5603 C   0  0  0  0  0  0  0  0  0  0  0  0
    1.6614   -0.2098   -0.9522 C   0  0  0  0  0  0  0  0  0  0  0  0
    2.2878   -1.3638   -0.2898 C   0  0  0  0  0  0  0  0  0  0  0  0
    1.8723   -2.7351   -0.6359 C   0  0  0  0  0  0  0  0  0  0  0  0
    1.9482   -3.3344   -1.9608 C   0  0  0  0  0  0  0  0  0  0  0  0
    1.1170   -2.8305   -3.0745 C   0  0  0  0  0  0  0  0  0  0  0  0
    1.3771   -3.6624   -4.3458 C   0  0  0  0  0  0  0  0  0  0  0  0
   -4.5848    4.4614   -0.4034 O   0  0  0  0  0  0  0  0  0  0  0  0
   -5.5578    3.0205    1.0782 O   0  0  0  0  0  0  0  0  0  0  0  0
   -3.6690    3.7821    1.3073 H   0  0  0  0  0  0  0  0  0  0  0  0
   -4.3555    1.8287   -0.9666 H   0  0  0  0  0  0  0  0  0  0  0  0
   -2.7799    2.5570   -0.5677 H   0  0  0  0  0  0  0  0  0  0  0  0
   -2.7849    1.7044    1.6510 H   0  0  0  0  0  0  0  0  0  0  0  0
   -4.4811    1.0140    1.4880 H   0  0  0  0  0  0  0  0  0  0  0  0
   -3.6483   -0.5265   -0.2537 H   0  0  0  0  0  0  0  0  0  0  0  0
   -2.0087    0.1042   -0.0913 H   0  0  0  0  0  0  0  0  0  0  0  0
   -3.6291   -1.4979    1.9747 H   0  0  0  0  0  0  0  0  0  0  0  0
   -2.2374   -1.9903    1.0037 H   0  0  0  0  0  0  0  0  0  0  0  0
   -1.6356   -1.5755    3.2862 H   0  0  0  0  0  0  0  0  0  0  0  0
   -2.1584    0.1327    3.2075 H   0  0  0  0  0  0  0  0  0  0  0  0
    0.0233   -1.1842    1.5180 H   0  0  0  0  0  0  0  0  0  0  0  0
   -0.5483    0.4943    1.4188 H   0  0  0  0  0  0  0  0  0  0  0  0
    0.5110   -0.8294    3.9340 H   0  0  0  0  0  0  0  0  0  0  0  0
   -0.0188    0.8451    3.8754 H   0  0  0  0  0  0  0  0  0  0  0  0
    2.3219    0.8012    3.9488 H   0  0  0  0  0  0  0  0  0  0  0  0
    2.4814   -0.4739    2.7767 H   0  0  0  0  0  0  0  0  0  0  0  0
    3.3124    1.6942    2.0337 H   0  0  0  0  0  0  0  0  0  0  0  0
    1.8865    2.5436    2.6577 H   0  0  0  0  0  0  0  0  0  0  0  0
    0.6249    2.2786    0.6638 H   0  0  0  0  0  0  0  0  0  0  0  0
    2.2122    2.9360    0.4780 H   0  0  0  0  0  0  0  0  0  0  0  0
    1.6474    1.8368   -1.4620 H   0  0  0  0  0  0  0  0  0  0  0  0
    3.1567    1.3263   -0.7539 H   0  0  0  0  0  0  0  0  0  0  0  0
    2.0051   -0.3023   -2.0666 H   0  0  0  0  0  0  0  0  0  0  0  0
    0.5449   -0.3611   -1.0614 H   0  0  0  0  0  0  0  0  0  0  0  0
    2.2648   -1.3146    0.8258 H   0  0  0  0  0  0  0  0  0  0  0  0
    3.4155   -1.2743   -0.4975 H   0  0  0  0  0  0  0  0  0  0  0  0
    0.7968   -2.8603   -0.2411 H   0  0  0  0  0  0  0  0  0  0  0  0
    2.4259   -3.4070    0.1297 H   0  0  0  0  0  0  0  0  0  0  0  0
    1.7021   -4.4533   -1.8398 H   0  0  0  0  0  0  0  0  0  0  0  0
    3.0433   -3.4209   -2.2942 H   0  0  0  0  0  0  0  0  0  0  0  0
    1.2178   -1.7837   -3.2857 H   0  0  0  0  0  0  0  0  0  0  0  0
    0.0183   -2.9940   -2.8509 H   0  0  0  0  0  0  0  0  0  0  0  0
    0.9541   -3.0364   -5.1689 H   0  0  0  0  0  0  0  0  0  0  0  0
    2.4511   -3.7964   -4.5022 H   0  0  0  0  0  0  0  0  0  0  0  0
    0.8112   -4.5974   -4.3223 H   0  0  0  0  0  0  0  0  0  0  0  0
   -4.3271    4.1262   -1.3192 H   0  0  0  0  0  0  0  0  0  0  0  0
   -5.9077    3.7049    1.7049 H   0  0  0  0  0  0  0  0  0  0  0  0
  1  2  1  0
  1 19  1  0
  1 20  1  0
  2  3  1  0
  3  4  1  0
  4  5  1  0
  5  6  1  0
  6  7  1  0
  7  8  1  0
  8  9  1  0
  9 10  1  0
 10 11  1  0
 11 12  1  0
 12 13  1  0
 13 14  1  0
 14 15  1  0
 15 16  1  0
 16 17  1  0
 17 18  1  0
  1 21  1  0
  2 22  1  0
  2 23  1  0
  3 24  1  0
  3 25  1  0
  4 26  1  0
  4 27  1  0
  5 28  1  0
  5 29  1  0
  6 30  1  0
  6 31  1  0
  7 32  1  0
  7 33  1  0
  8 34  1  0
  8 35  1  0
  9 36  1  0
  9 37  1  0
 10 38  1  0
 10 39  1  0
 11 40  1  0
 11 41  1  0
 12 42  1  0
 12 43  1  0
 13 44  1  0
 13 45  1  0
 14 46  1  0
 14 47  1  0
 15 48  1  0
 15 49  1  0
 16 50  1  0
 16 51  1  0
 17 52  1  0
 17 53  1  0
 18 54  1  0
 18 55  1  0
 18 56  1  0
 19 57  1  0
 20 58  1  0
M  END
$$$$
FATTY ACID-BINDING PROTEIN
     RDKit          3D

 58 57  0  0  0  0  0  0  0  0999 V2000
   -2.6389    3.2900   -0.5941 C   0  0  0  0  0  0  0  0  0  0  0  0
   -2.9466    1.8233   -0.8597 C   0  0  0  0  0  0  0  0  0  0  0  0
   -1.6684    1.0111   -0.9038 C   0  0  0  0  0  0  0  0  0  0  0  0
   -1.9196   -0.4367   -1.1620 C   0  0  0  0  0  0  0  0  0  0  0  0
   -2.7789   -1.0981   -0.1265 C   0  0  0  0  0  0  0  0  0  0  0  0
   -2.2096   -1.0557    1.2644 C   0  0  0  0  0  0  0  0  0  0  0  0
   -0.8532   -1.7593    1.3229 C   0  0  0  0  0  0  0  0  0  0  0  0
   -0.2738   -1.7242    2.7047 C   0  0  0  0  0  0  0  0  0  0  0  0
    1.0634   -2.4004    2.8350 C   0  0  0  0  0  0  0  0  0  0  0  0
    2.0659   -1.7060    1.9036 C   0  0  0  0  0  0  0  0  0  0  0  0
    3.3952   -2.3503    2.0098 C   0  0  0  0  0  0  0  0  0  0  0  0
    4.5475   -1.8377    1.2858 C   0  0  0  0  0  0  0  0  0  0  0  0
    4.6567   -1.7067   -0.1594 C   0  0  0  0  0  0  0  0  0  0  0  0
    3.7168   -0.7450   -0.8062 C   0  0  0  0  0  0  0  0  0  0  0  0
    3.9528   -0.6807   -2.3188 C   0  0  0  0  0  0  0  0  0  0  0  0
    3.0480    0.2281   -3.0322 C   0  0  0  0  0  0  0  0  0  0  0  0
    3.0286    1.6682   -2.7124 C   0  0  0  0  0  0  0  0  0  0  0  0
    2.6449    2.0949   -1.3479 C   0  0  0  0  0  0  0  0  0  0  0  0
   -1.8249    3.7938   -1.6038 O   0  0  0  0  0  0  0  0  0  0  0  0
   -3.8352    3.9755   -0.6309 O   0  0  0  0  0  0  0  0  0  0  0  0
   -2.1735    3.4477    0.3779 H   0  0  0  0  0  0  0  0  0  0  0  0
   -3.5919    1.4461   -0.0665 H   0  0  0  0  0  0  0  0  0  0  0  0
   -3.4669    1.8009   -1.8312 H   0  0  0  0  0  0  0  0  0  0  0  0
   -1.1126    1.3911   -1.8078 H   0  0  0  0  0  0  0  0  0  0  0  0
   -1.0018    1.2295   -0.0602 H   0  0  0  0  0  0  0  0  0  0  0  0
   -0.9609   -0.9256   -1.3282 H   0  0  0  0  0  0  0  0  0  0  0  0
   -2.4748   -0.5015   -2.1220 H   0  0  0  0  0  0  0  0  0  0  0  0
   -3.7896   -0.6845   -0.1387 H   0  0  0  0  0  0  0  0  0  0  0  0
   -2.8542   -2.1698   -0.4049 H   0  0  0  0  0  0  0  0  0  0  0  0
   -2.1480   -0.0698    1.7210 H   0  0  0  0  0  0  0  0  0  0  0  0
   -2.8912   -1.6752    1.8942 H   0  0  0  0  0  0  0  0  0  0  0  0
   -0.9512   -2.8287    1.0437 H   0  0  0  0  0  0  0  0  0  0  0  0
   -0.2432   -1.2688    0.5660 H   0  0  0  0  0  0  0  0  0  0  0  0
   -0.1384   -0.6837    3.0886 H   0  0  0  0  0  0  0  0  0  0  0  0
   -0.9865   -2.1992    3.4093 H   0  0  0  0  0  0  0  0  0  0  0  0
    0.9272   -3.4614    2.5189 H   0  0  0  0  0  0  0  0  0  0  0  0
    1.3646   -2.3886    3.8809 H   0  0  0  0  0  0  0  0  0  0  0  0
    2.1111   -0.6685    2.1824 H   0  0  0  0  0  0  0  0  0  0  0  0
    1.6489   -1.9505    0.9023 H   0  0  0  0  0  0  0  0  0  0  0  0
    3.6651   -2.2678    3.1236 H   0  0  0  0  0  0  0  0  0  0  0  0
    3.2864   -3.4876    1.9244 H   0  0  0  0  0  0  0  0  0  0  0  0
    4.7928   -0.8025    1.7339 H   0  0  0  0  0  0  0  0  0  0  0  0
    5.4554   -2.4379    1.6816 H   0  0  0  0  0  0  0  0  0  0  0  0
    4.7155   -2.6808   -0.7160 H   0  0  0  0  0  0  0  0  0  0  0  0
    5.6925   -1.2711   -0.3684 H   0  0  0  0  0  0  0  0  0  0  0  0
    2.6606   -0.8889   -0.6944 H   0  0  0  0  0  0  0  0  0  0  0  0
    4.0039    0.2606   -0.3654 H   0  0  0  0  0  0  0  0  0  0  0  0
    3.7303   -1.7238   -2.6676 H   0  0  0  0  0  0  0  0  0  0  0  0
    5.0314   -0.5449   -2.5399 H   0  0  0  0  0  0  0  0  0  0  0  0
    2.0119   -0.2028   -2.9728 H   0  0  0  0  0  0  0  0  0  0  0  0
    3.2648    0.1623   -4.1491 H   0  0  0  0  0  0  0  0  0  0  0  0
    2.3082    2.1496   -3.4489 H   0  0  0  0  0  0  0  0  0  0  0  0
    3.9998    2.1801   -2.9750 H   0  0  0  0  0  0  0  0  0  0  0  0
    1.9692    3.0118   -1.4568 H   0  0  0  0  0  0  0  0  0  0  0  0
    1.9818    1.3904   -0.7920 H   0  0  0  0  0  0  0  0  0  0  0  0
    3.4781    2.5038   -0.7290 H   0  0  0  0  0  0  0  0  0  0  0  0
   -1.3190    4.5928   -1.3170 H   0  0  0  0  0  0  0  0  0  0  0  0
   -4.4790    3.7039    0.0575 H   0  0  0  0  0  0  0  0  0  0  0  0
  1  2  1  0
  1 19  1  0
  1 20  1  0
  2  3  1  0
  3  4  1  0
  4  5  1  0
  5  6  1  0
  6  7  1  0
  7  8  1  0
  8  9  1  0
  9 10  1  0
 10 11  1  0
 11 12  1  0
 12 13  1  0
 13 14  1  0
 14 15  1  0
 15 16  1  0
 16 17  1  0
 17 18  1  0
  1 21  1  0
  2 22  1  0
  2 23  1  0
  3 24  1  0
  3 25  1  0
  4 26  1  0
  4 27  1  0
  5 28  1  0
  5 29  1  0
  6 30  1  0
  6 31  1  0
  7 32  1  0
  7 33  1  0
  8 34  1  0
  8 35  1  0
  9 36  1  0
  9 37  1  0
 10 38  1  0
 10 39  1  0
 11 40  1  0
 11 41  1  0
 12 42  1  0
 12 43  1  0
 13 44  1  0
 13 45  1  0
 14 46  1  0
 14 47  1  0
 15 48  1  0
 15 49  1  0
 16 50  1  0
 16 51  1  0
 17 52  1  0
 17 53  1  0
 18 54  1  0
 18 55  1  0
 18 56  1  0
 19 57  1  0
 20 58  1  0
M  END
$$$$
FATTY ACID-BINDING PROTEIN
     RDKit          3D

 58 57  0  0  0  0  0  0  0  0999 V2000
   -2.0110    3.6935   -1.6464 C   0  0  0  0  0  0  0  0  0  0  0  0
   -0.9802    3.2162   -2.6797 C   0  0  0  0  0  0  0  0  0  0  0  0
    0.3493    3.1812   -2.0368 C   0  0  0  0  0  0  0  0  0  0  0  0
    1.4868    2.7446   -2.8698 C   0  0  0  0  0  0  0  0  0  0  0  0
    1.5140    1.4430   -3.5131 C   0  0  0  0  0  0  0  0  0  0  0  0
    1.4576    0.1697   -2.7971 C   0  0  0  0  0  0  0  0  0  0  0  0
    0.3179   -0.2217   -1.9709 C   0  0  0  0  0  0  0  0  0  0  0  0
    0.4803   -1.6207   -1.3449 C   0  0  0  0  0  0  0  0  0  0  0  0
    1.6818   -1.7238   -0.4540 C   0  0  0  0  0  0  0  0  0  0  0  0
    1.8042   -3.0967    0.1577 C   0  0  0  0  0  0  0  0  0  0  0  0
    2.9260   -3.2484    1.0941 C   0  0  0  0  0  0  0  0  0  0  0  0
    3.0081   -2.7288    2.4363 C   0  0  0  0  0  0  0  0  0  0  0  0
    2.7616   -1.3601    2.9051 C   0  0  0  0  0  0  0  0  0  0  0  0
    1.3633   -0.8372    2.9566 C   0  0  0  0  0  0  0  0  0  0  0  0
    0.5500   -1.7119    3.9129 C   0  0  0  0  0  0  0  0  0  0  0  0
   -0.8746   -1.2172    4.0144 C   0  0  0  0  0  0  0  0  0  0  0  0
   -1.6188   -1.2158    2.7218 C   0  0  0  0  0  0  0  0  0  0  0  0
   -1.7352   -2.5809    2.0958 C   0  0  0  0  0  0  0  0  0  0  0  0
   -1.6581    4.9593   -1.2107 O   0  0  0  0  0  0  0  0  0  0  0  0
   -3.2720    3.5960   -2.1822 O   0  0  0  0  0  0  0  0  0  0  0  0
   -1.9143    2.9714   -0.7912 H   0  0  0  0  0  0  0  0  0  0  0  0
   -1.3713    2.2799   -3.0565 H   0  0  0  0  0  0  0  0  0  0  0  0
   -1.0439    3.9727   -3.4890 H   0  0  0  0  0  0  0  0  0  0  0  0
    0.5109    4.2678   -1.6849 H   0  0  0  0  0  0  0  0  0  0  0  0
    0.3441    2.6481   -1.0756 H   0  0  0  0  0  0  0  0  0  0  0  0
    1.5366    3.5128   -3.7147 H   0  0  0  0  0  0  0  0  0  0  0  0
    2.4811    2.9764   -2.3610 H   0  0  0  0  0  0  0  0  0  0  0  0
    2.4935    1.4054   -4.1090 H   0  0  0  0  0  0  0  0  0  0  0  0
    0.7819    1.4825   -4.3935 H   0  0  0  0  0  0  0  0  0  0  0  0
    1.6041   -0.6459   -3.5756 H   0  0  0  0  0  0  0  0  0  0  0  0
    2.3898    0.0086   -2.1604 H   0  0  0  0  0  0  0  0  0  0  0  0
   -0.6173   -0.3567   -2.6030 H   0  0  0  0  0  0  0  0  0  0  0  0
   -0.0037    0.3991   -1.1462 H   0  0  0  0  0  0  0  0  0  0  0  0
    0.5541   -2.3526   -2.1822 H   0  0  0  0  0  0  0  0  0  0  0  0
   -0.4119   -1.8975   -0.7771 H   0  0  0  0  0  0  0  0  0  0  0  0
    2.5759   -1.7296   -1.2082 H   0  0  0  0  0  0  0  0  0  0  0  0
    1.9018   -0.8673    0.1396 H   0  0  0  0  0  0  0  0  0  0  0  0
    1.9607   -3.8051   -0.7163 H   0  0  0  0  0  0  0  0  0  0  0  0
    0.8229   -3.4324    0.5914 H   0  0  0  0  0  0  0  0  0  0  0  0
    3.1798   -4.3917    1.1492 H   0  0  0  0  0  0  0  0  0  0  0  0
    3.9038   -2.9165    0.5424 H   0  0  0  0  0  0  0  0  0  0  0  0
    2.4017   -3.4618    3.1057 H   0  0  0  0  0  0  0  0  0  0  0  0
    4.0848   -2.9972    2.8497 H   0  0  0  0  0  0  0  0  0  0  0  0
    3.1727   -1.2358    3.9606 H   0  0  0  0  0  0  0  0  0  0  0  0
    3.3980   -0.6047    2.3299 H   0  0  0  0  0  0  0  0  0  0  0  0
    0.9040   -0.7215    2.0131 H   0  0  0  0  0  0  0  0  0  0  0  0
    1.4584    0.2016    3.4133 H   0  0  0  0  0  0  0  0  0  0  0  0
    1.0127   -1.6201    4.9116 H   0  0  0  0  0  0  0  0  0  0  0  0
    0.6046   -2.7503    3.5947 H   0  0  0  0  0  0  0  0  0  0  0  0
   -0.8903   -0.2127    4.4346 H   0  0  0  0  0  0  0  0  0  0  0  0
   -1.3904   -1.9256    4.7034 H   0  0  0  0  0  0  0  0  0  0  0  0
   -2.6547   -0.8905    2.9476 H   0  0  0  0  0  0  0  0  0  0  0  0
   -1.2118   -0.4787    1.9977 H   0  0  0  0  0  0  0  0  0  0  0  0
   -2.6234   -3.1368    2.4859 H   0  0  0  0  0  0  0  0  0  0  0  0
   -1.8897   -2.5330    0.9997 H   0  0  0  0  0  0  0  0  0  0  0  0
   -0.8704   -3.2427    2.2784 H   0  0  0  0  0  0  0  0  0  0  0  0
   -1.6693    4.9874   -0.2190 H   0  0  0  0  0  0  0  0  0  0  0  0
   -3.1990    3.6450   -3.1611 H   0  0  0  0  0  0  0  0  0  0  0  0
  1  2  1  0
  1 19  1  0
  1 20  1  0
  2  3  1  0
  3  4  1  0
  4  5  1  0
  5  6  1  0
  6  7  1  0
  7  8  1  0
  8  9  1  0
  9 10  1  0
 10 11  1  0
 11 12  1  0
 12 13  1  0
 13 14  1  0
 14 15  1  0
 15 16  1  0
 16 17  1  0
 17 18  1  0
  1 21  1  0
  2 22  1  0
  2 23  1  0
  3 24  1  0
  3 25  1  0
  4 26  1  0
  4 27  1  0
  5 28  1  0
  5 29  1  0
  6 30  1  0
  6 31  1  0
  7 32  1  0
  7 33  1  0
  8 34  1  0
  8 35  1  0
  9 36  1  0
  9 37  1  0
 10 38  1  0
 10 39  1  0
 11 40  1  0
 11 41  1  0
 12 42  1  0
 12 43  1  0
 13 44  1  0
 13 45  1  0
 14 46  1  0
 14 47  1  0
 15 48  1  0
 15 49  1  0
 16 50  1  0
 16 51  1  0
 17 52  1  0
 17 53  1  0
 18 54  1  0
 18 55  1  0
 18 56  1  0
 19 57  1  0
 20 58  1  0
M  END
$$$$
FATTY ACID-BINDING PROTEIN
     RDKit          3D

 58 57  0  0  0  0  0  0  0  0999 V2000
    2.5817   -4.1345   -1.7769 C   0  0  0  0  0  0  0  0  0  0  0  0
    1.4668   -4.4485   -2.7253 C   0  0  0  0  0  0  0  0  0  0  0  0
    0.0840   -4.1888   -2.1765 C   0  0  0  0  0  0  0  0  0  0  0  0
   -0.1358   -2.7816   -1.7977 C   0  0  0  0  0  0  0  0  0  0  0  0
   -1.4784   -2.4399   -1.2528 C   0  0  0  0  0  0  0  0  0  0  0  0
   -1.9490   -3.0991   -0.0380 C   0  0  0  0  0  0  0  0  0  0  0  0
   -1.2165   -3.0581    1.2262 C   0  0  0  0  0  0  0  0  0  0  0  0
   -0.9127   -1.8224    1.9481 C   0  0  0  0  0  0  0  0  0  0  0  0
   -0.0415   -0.8226    1.2976 C   0  0  0  0  0  0  0  0  0  0  0  0
    0.2151    0.3940    2.2023 C   0  0  0  0  0  0  0  0  0  0  0  0
   -1.0484    1.1024    2.5690 C   0  0  0  0  0  0  0  0  0  0  0  0
   -1.8167    1.6258    1.4123 C   0  0  0  0  0  0  0  0  0  0  0  0
   -1.1240    2.6247    0.5503 C   0  0  0  0  0  0  0  0  0  0  0  0
   -0.7579    3.8378    1.3310 C   0  0  0  0  0  0  0  0  0  0  0  0
   -0.0857    4.8683    0.4867 C   0  0  0  0  0  0  0  0  0  0  0  0
    1.1840    4.4398   -0.1499 C   0  0  0  0  0  0  0  0  0  0  0  0
    2.2856    4.0332    0.7609 C   0  0  0  0  0  0  0  0  0  0  0  0
    2.7301    5.1184    1.7048 C   0  0  0  0  0  0  0  0  0  0  0  0
    3.8279   -4.4018   -2.3477 O   0  0  0  0  0  0  0  0  0  0  0  0
    2.4030   -4.7847   -0.5587 O   0  0  0  0  0  0  0  0  0  0  0  0
    2.5449   -3.0297   -1.5467 H   0  0  0  0  0  0  0  0  0  0  0  0
    1.5977   -5.4992   -3.0496 H   0  0  0  0  0  0  0  0  0  0  0  0
    1.6193   -3.8559   -3.6752 H   0  0  0  0  0  0  0  0  0  0  0  0
   -0.6192   -4.6018   -2.9122 H   0  0  0  0  0  0  0  0  0  0  0  0
    0.0080   -4.8643   -1.2736 H   0  0  0  0  0  0  0  0  0  0  0  0
    0.6659   -2.4655   -1.0975 H   0  0  0  0  0  0  0  0  0  0  0  0
    0.0140   -2.1452   -2.6974 H   0  0  0  0  0  0  0  0  0  0  0  0
   -2.2573   -2.7606   -2.0652 H   0  0  0  0  0  0  0  0  0  0  0  0
   -1.6348   -1.3646   -1.2376 H   0  0  0  0  0  0  0  0  0  0  0  0
   -2.3124   -4.1619   -0.2200 H   0  0  0  0  0  0  0  0  0  0  0  0
   -2.9608   -2.5978    0.1901 H   0  0  0  0  0  0  0  0  0  0  0  0
   -1.8318   -3.7065    1.9561 H   0  0  0  0  0  0  0  0  0  0  0  0
   -0.2533   -3.6625    1.1956 H   0  0  0  0  0  0  0  0  0  0  0  0
   -1.8838   -1.3837    2.3085 H   0  0  0  0  0  0  0  0  0  0  0  0
   -0.3989   -2.0752    2.9382 H   0  0  0  0  0  0  0  0  0  0  0  0
   -0.4967   -0.4368    0.3731 H   0  0  0  0  0  0  0  0  0  0  0  0
    0.9388   -1.2453    1.0002 H   0  0  0  0  0  0  0  0  0  0  0  0
    0.9447    1.0770    1.7297 H   0  0  0  0  0  0  0  0  0  0  0  0
    0.7043   -0.0288    3.1034 H   0  0  0  0  0  0  0  0  0  0  0  0
   -0.7862    1.9430    3.2433 H   0  0  0  0  0  0  0  0  0  0  0  0
   -1.6650    0.4154    3.2140 H   0  0  0  0  0  0  0  0  0  0  0  0
   -2.2079    0.8372    0.7359 H   0  0  0  0  0  0  0  0  0  0  0  0
   -2.7418    2.1124    1.8389 H   0  0  0  0  0  0  0  0  0  0  0  0
   -1.7844    2.9301   -0.3004 H   0  0  0  0  0  0  0  0  0  0  0  0
   -0.2579    2.1244    0.0696 H   0  0  0  0  0  0  0  0  0  0  0  0
   -1.7178    4.2918    1.6904 H   0  0  0  0  0  0  0  0  0  0  0  0
   -0.1818    3.5751    2.2412 H   0  0  0  0  0  0  0  0  0  0  0  0
   -0.8024    5.0923   -0.3522 H   0  0  0  0  0  0  0  0  0  0  0  0
   -0.0086    5.8452    1.0243 H   0  0  0  0  0  0  0  0  0  0  0  0
    1.4812    5.2078   -0.8935 H   0  0  0  0  0  0  0  0  0  0  0  0
    0.9403    3.5357   -0.7752 H   0  0  0  0  0  0  0  0  0  0  0  0
    2.0617    3.1369    1.3488 H   0  0  0  0  0  0  0  0  0  0  0  0
    3.1626    3.7793    0.1307 H   0  0  0  0  0  0  0  0  0  0  0  0
    2.6777    4.7829    2.7644 H   0  0  0  0  0  0  0  0  0  0  0  0
    2.1343    6.0405    1.6162 H   0  0  0  0  0  0  0  0  0  0  0  0
    3.7905    5.4226    1.5438 H   0  0  0  0  0  0  0  0  0  0  0  0
    3.6767   -5.1203   -3.0272 H   0  0  0  0  0  0  0  0  0  0  0  0
    2.0070   -5.6755   -0.7916 H   0  0  0  0  0  0  0  0  0  0  0  0
  1  2  1  0
  1 19  1  0
  1 20  1  0
  2  3  1  0
  3  4  1  0
  4  5  1  0
  5  6  1  0
  6  7  1  0
  7  8  1  0
  8  9  1  0
  9 10  1  0
 10 11  1  0
 11 12  1  0
 12 13  1  0
 13 14  1  0
 14 15  1  0
 15 16  1  0
 16 17  1  0
 17 18  1  0
  1 21  1  0
  2 22  1  0
  2 23  1  0
  3 24  1  0
  3 25  1  0
  4 26  1  0
  4 27  1  0
  5 28  1  0
  5 29  1  0
  6 30  1  0
  6 31  1  0
  7 32  1  0
  7 33  1  0
  8 34  1  0
  8 35  1  0
  9 36  1  0
  9 37  1  0
 10 38  1  0
 10 39  1  0
 11 40  1  0
 11 41  1  0
 12 42  1  0
 12 43  1  0
 13 44  1  0
 13 45  1  0
 14 46  1  0
 14 47  1  0
 15 48  1  0
 15 49  1  0
 16 50  1  0
 16 51  1  0
 17 52  1  0
 17 53  1  0
 18 54  1  0
 18 55  1  0
 18 56  1  0
 19 57  1  0
 20 58  1  0
M  END
$$$$
FATTY ACID-BINDING PROTEIN
     RDKit          3D

 58 57  0  0  0  0  0  0  0  0999 V2000
   -0.7408   -2.8738   -2.6782 C   0  0  0  0  0  0  0  0  0  0  0  0
   -0.8642   -2.8499   -1.1882 C   0  0  0  0  0  0  0  0  0  0  0  0
   -1.6637   -1.7209   -0.6115 C   0  0  0  0  0  0  0  0  0  0  0  0
   -3.0852   -1.6397   -1.0236 C   0  0  0  0  0  0  0  0  0  0  0  0
   -3.8449   -0.4963   -0.4179 C   0  0  0  0  0  0  0  0  0  0  0  0
   -3.3332    0.8710   -0.7504 C   0  0  0  0  0  0  0  0  0  0  0  0
   -3.3224    1.1683   -2.2117 C   0  0  0  0  0  0  0  0  0  0  0  0
   -2.8705    2.5591   -2.5494 C   0  0  0  0  0  0  0  0  0  0  0  0
   -1.4728    2.9066   -2.1126 C   0  0  0  0  0  0  0  0  0  0  0  0
   -0.4252    2.0259   -2.7416 C   0  0  0  0  0  0  0  0  0  0  0  0
    0.9460    2.4591   -2.3147 C   0  0  0  0  0  0  0  0  0  0  0  0
    1.1173    2.3264   -0.8003 C   0  0  0  0  0  0  0  0  0  0  0  0
    2.4531    2.8029   -0.3677 C   0  0  0  0  0  0  0  0  0  0  0  0
    2.8244    2.8106    1.0461 C   0  0  0  0  0  0  0  0  0  0  0  0
    3.0420    1.7196    1.9551 C   0  0  0  0  0  0  0  0  0  0  0  0
    2.1739    0.6677    2.4304 C   0  0  0  0  0  0  0  0  0  0  0  0
    1.6095   -0.3861    1.5730 C   0  0  0  0  0  0  0  0  0  0  0  0
    2.6703   -1.1753    0.8228 C   0  0  0  0  0  0  0  0  0  0  0  0
   -1.9407   -2.9922   -3.3661 O   0  0  0  0  0  0  0  0  0  0  0  0
   -0.0081   -1.7658   -3.1341 O   0  0  0  0  0  0  0  0  0  0  0  0
   -0.0891   -3.7587   -2.9400 H   0  0  0  0  0  0  0  0  0  0  0  0
    0.1881   -2.7408   -0.7923 H   0  0  0  0  0  0  0  0  0  0  0  0
   -1.2574   -3.8351   -0.8283 H   0  0  0  0  0  0  0  0  0  0  0  0
   -1.5266   -1.7836    0.4937 H   0  0  0  0  0  0  0  0  0  0  0  0
   -1.1390   -0.7756   -0.9328 H   0  0  0  0  0  0  0  0  0  0  0  0
   -3.5988   -2.5682   -0.6431 H   0  0  0  0  0  0  0  0  0  0  0  0
   -3.2276   -1.6385   -2.1163 H   0  0  0  0  0  0  0  0  0  0  0  0
   -3.8495   -0.6484    0.6931 H   0  0  0  0  0  0  0  0  0  0  0  0
   -4.8964   -0.5686   -0.7484 H   0  0  0  0  0  0  0  0  0  0  0  0
   -3.9891    1.6089   -0.2453 H   0  0  0  0  0  0  0  0  0  0  0  0
   -2.3195    1.0651   -0.3618 H   0  0  0  0  0  0  0  0  0  0  0  0
   -2.6661    0.4300   -2.7670 H   0  0  0  0  0  0  0  0  0  0  0  0
   -4.3214    1.0351   -2.7002 H   0  0  0  0  0  0  0  0  0  0  0  0
   -2.9587    2.7615   -3.6411 H   0  0  0  0  0  0  0  0  0  0  0  0
   -3.5472    3.2570   -1.9852 H   0  0  0  0  0  0  0  0  0  0  0  0
   -1.2015    3.9521   -2.4009 H   0  0  0  0  0  0  0  0  0  0  0  0
   -1.4440    2.7602   -1.0267 H   0  0  0  0  0  0  0  0  0  0  0  0
   -0.4924    2.1441   -3.8581 H   0  0  0  0  0  0  0  0  0  0  0  0
   -0.6019    0.9468   -2.4886 H   0  0  0  0  0  0  0  0  0  0  0  0
    1.7368    1.8650   -2.8319 H   0  0  0  0  0  0  0  0  0  0  0  0
    1.0700    3.4966   -2.6686 H   0  0  0  0  0  0  0  0  0  0  0  0
    1.0142    1.2539   -0.6234 H   0  0  0  0  0  0  0  0  0  0  0  0
    0.3604    2.9794   -0.3107 H   0  0  0  0  0  0  0  0  0  0  0  0
    2.6096    3.8853   -0.7448 H   0  0  0  0  0  0  0  0  0  0  0  0
    3.2375    2.2717   -1.0101 H   0  0  0  0  0  0  0  0  0  0  0  0
    3.6823    3.6054    1.1988 H   0  0  0  0  0  0  0  0  0  0  0  0
    1.9845    3.4609    1.5688 H   0  0  0  0  0  0  0  0  0  0  0  0
    4.0977    1.2603    1.6886 H   0  0  0  0  0  0  0  0  0  0  0  0
    3.4004    2.2498    2.9577 H   0  0  0  0  0  0  0  0  0  0  0  0
    1.2600    1.1675    2.9310 H   0  0  0  0  0  0  0  0  0  0  0  0
    2.6195    0.1541    3.3661 H   0  0  0  0  0  0  0  0  0  0  0  0
    0.7353   -0.1398    0.9870 H   0  0  0  0  0  0  0  0  0  0  0  0
    1.1651   -1.1741    2.3163 H   0  0  0  0  0  0  0  0  0  0  0  0
    3.1033   -1.9395    1.4710 H   0  0  0  0  0  0  0  0  0  0  0  0
    3.4426   -0.5019    0.3755 H   0  0  0  0  0  0  0  0  0  0  0  0
    2.1791   -1.6602   -0.0382 H   0  0  0  0  0  0  0  0  0  0  0  0
   -1.8672   -3.6809   -4.0602 H   0  0  0  0  0  0  0  0  0  0  0  0
    0.4632   -1.3031   -2.3863 H   0  0  0  0  0  0  0  0  0  0  0  0
  1  2  1  0
  1 19  1  0
  1 20  1  0
  2  3  1  0
  3  4  1  0
  4  5  1  0
  5  6  1  0
  6  7  1  0
  7  8  1  0
  8  9  1  0
  9 10  1  0
 10 11  1  0
 11 12  1  0
 12 13  1  0
 13 14  1  0
 14 15  1  0
 15 16  1  0
 16 17  1  0
 17 18  1  0
  1 21  1  0
  2 22  1  0
  2 23  1  0
  3 24  1  0
  3 25  1  0
  4 26  1  0
  4 27  1  0
  5 28  1  0
  5 29  1  0
  6 30  1  0
  6 31  1  0
  7 32  1  0
  7 33  1  0
  8 34  1  0
  8 35  1  0
  9 36  1  0
  9 37  1  0
 10 38  1  0
 10 39  1  0
 11 40  1  0
 11 41  1  0
 12 42  1  0
 12 43  1  0
 13 44  1  0
 13 45  1  0
 14 46  1  0
 14 47  1  0
 15 48  1  0
 15 49  1  0
 16 50  1  0
 16 51  1  0
 17 52  1  0
 17 53  1  0
 18 54  1  0
 18 55  1  0
 18 56  1  0
 19 57  1  0
 20 58  1  0
M  END
$$$$
FATTY ACID-BINDING PROTEIN
     RDKit          3D

 58 57  0  0  0  0  0  0  0  0999 V2000
   -2.8055   -2.4385    2.0512 C   0  0  0  0  0  0  0  0  0  0  0  0
   -1.9916   -3.6430    1.7683 C   0  0  0  0  0  0  0  0  0  0  0  0
   -0.6834   -3.4302    1.0654 C   0  0  0  0  0  0  0  0  0  0  0  0
    0.1676   -2.5187    1.9044 C   0  0  0  0  0  0  0  0  0  0  0  0
    1.5611   -2.2886    1.3243 C   0  0  0  0  0  0  0  0  0  0  0  0
    2.3238   -1.4020    2.2420 C   0  0  0  0  0  0  0  0  0  0  0  0
    1.8350   -0.0291    2.4614 C   0  0  0  0  0  0  0  0  0  0  0  0
    1.8647    0.8874    1.2486 C   0  0  0  0  0  0  0  0  0  0  0  0
    1.3498    2.2117    1.6973 C   0  0  0  0  0  0  0  0  0  0  0  0
    1.3840    3.3461    0.7860 C   0  0  0  0  0  0  0  0  0  0  0  0
    0.7138    3.4128   -0.5006 C   0  0  0  0  0  0  0  0  0  0  0  0
   -0.7729    3.2733   -0.4788 C   0  0  0  0  0  0  0  0  0  0  0  0
   -1.3805    3.4902   -1.8341 C   0  0  0  0  0  0  0  0  0  0  0  0
   -0.9707    2.6065   -2.9317 C   0  0  0  0  0  0  0  0  0  0  0  0
   -1.2880    1.1555   -2.8261 C   0  0  0  0  0  0  0  0  0  0  0  0
   -2.8000    0.9310   -2.7437 C   0  0  0  0  0  0  0  0  0  0  0  0
   -3.0557   -0.5411   -2.6741 C   0  0  0  0  0  0  0  0  0  0  0  0
   -2.3907   -1.1598   -1.4681 C   0  0  0  0  0  0  0  0  0  0  0  0
   -3.9979   -2.8833    2.6950 O   0  0  0  0  0  0  0  0  0  0  0  0
   -2.2008   -1.5446    2.9678 O   0  0  0  0  0  0  0  0  0  0  0  0
   -3.1408   -1.8562    1.2011 H   0  0  0  0  0  0  0  0  0  0  0  0
   -1.7001   -4.0640    2.7863 H   0  0  0  0  0  0  0  0  0  0  0  0
   -2.5814   -4.4747    1.3144 H   0  0  0  0  0  0  0  0  0  0  0  0
   -0.8101   -2.9861    0.0429 H   0  0  0  0  0  0  0  0  0  0  0  0
   -0.2075   -4.4456    0.9757 H   0  0  0  0  0  0  0  0  0  0  0  0
    0.1647   -2.8734    2.9289 H   0  0  0  0  0  0  0  0  0  0  0  0
   -0.3119   -1.4994    1.7881 H   0  0  0  0  0  0  0  0  0  0  0  0
    1.4952   -1.8284    0.3196 H   0  0  0  0  0  0  0  0  0  0  0  0
    2.1129   -3.2376    1.2214 H   0  0  0  0  0  0  0  0  0  0  0  0
    2.2935   -1.9152    3.2533 H   0  0  0  0  0  0  0  0  0  0  0  0
    3.4130   -1.4019    1.9959 H   0  0  0  0  0  0  0  0  0  0  0  0
    2.5235    0.4400    3.2248 H   0  0  0  0  0  0  0  0  0  0  0  0
    0.8398    0.0254    2.9492 H   0  0  0  0  0  0  0  0  0  0  0  0
    1.3436    0.4335    0.4030 H   0  0  0  0  0  0  0  0  0  0  0  0
    2.9211    1.0358    0.9293 H   0  0  0  0  0  0  0  0  0  0  0  0
    0.3310    2.1262    2.1759 H   0  0  0  0  0  0  0  0  0  0  0  0
    1.9936    2.4869    2.5954 H   0  0  0  0  0  0  0  0  0  0  0  0
    2.4866    3.6752    0.6237 H   0  0  0  0  0  0  0  0  0  0  0  0
    1.0275    4.2681    1.3876 H   0  0  0  0  0  0  0  0  0  0  0  0
    1.1381    2.7518   -1.2974 H   0  0  0  0  0  0  0  0  0  0  0  0
    0.9073    4.4518   -0.9247 H   0  0  0  0  0  0  0  0  0  0  0  0
   -1.2264    4.0282    0.1925 H   0  0  0  0  0  0  0  0  0  0  0  0
   -1.0855    2.2834   -0.1259 H   0  0  0  0  0  0  0  0  0  0  0  0
   -1.1772    4.5471   -2.1475 H   0  0  0  0  0  0  0  0  0  0  0  0
   -2.4928    3.4195   -1.6833 H   0  0  0  0  0  0  0  0  0  0  0  0
    0.1063    2.7740   -3.2050 H   0  0  0  0  0  0  0  0  0  0  0  0
   -1.5177    2.9683   -3.8583 H   0  0  0  0  0  0  0  0  0  0  0  0
   -0.9891    0.6852   -3.7862 H   0  0  0  0  0  0  0  0  0  0  0  0
   -0.7872    0.6112   -2.0272 H   0  0  0  0  0  0  0  0  0  0  0  0
   -3.2819    1.3013   -3.6794 H   0  0  0  0  0  0  0  0  0  0  0  0
   -3.2390    1.4707   -1.9046 H   0  0  0  0  0  0  0  0  0  0  0  0
   -2.7652   -1.0810   -3.5886 H   0  0  0  0  0  0  0  0  0  0  0  0
   -4.1522   -0.7605   -2.5483 H   0  0  0  0  0  0  0  0  0  0  0  0
   -2.4084   -0.4593   -0.6054 H   0  0  0  0  0  0  0  0  0  0  0  0
   -1.3223   -1.3924   -1.6710 H   0  0  0  0  0  0  0  0  0  0  0  0
   -2.9072   -2.1058   -1.2234 H   0  0  0  0  0  0  0  0  0  0  0  0
   -4.5448   -2.0529    2.7920 H   0  0  0  0  0  0  0  0  0  0  0  0
   -2.8698   -0.8300    3.1322 H   0  0  0  0  0  0  0  0  0  0  0  0
  1  2  1  0
  1 19  1  0
  1 20  1  0
  2  3  1  0
  3  4  1  0
  4  5  1  0
  5  6  1  0
  6  7  1  0
  7  8  1  0
  8  9  1  0
  9 10  1  0
 10 11  1  0
 11 12  1  0
 12 13  1  0
 13 14  1  0
 14 15  1  0
 15 16  1  0
 16 17  1  0
 17 18  1  0
  1 21  1  0
  2 22  1  0
  2 23  1  0
  3 24  1  0
  3 25  1  0
  4 26  1  0
  4 27  1  0
  5 28  1  0
  5 29  1  0
  6 30  1  0
  6 31  1  0
  7 32  1  0
  7 33  1  0
  8 34  1  0
  8 35  1  0
  9 36  1  0
  9 37  1  0
 10 38  1  0
 10 39  1  0
 11 40  1  0
 11 41  1  0
 12 42  1  0
 12 43  1  0
 13 44  1  0
 13 45  1  0
 14 46  1  0
 14 47  1  0
 15 48  1  0
 15 49  1  0
 16 50  1  0
 16 51  1  0
 17 52  1  0
 17 53  1  0
 18 54  1  0
 18 55  1  0
 18 56  1  0
 19 57  1  0
 20 58  1  0
M  END
$$$$
FATTY ACID-BINDING PROTEIN
     RDKit          3D

 58 57  0  0  0  0  0  0  0  0999 V2000
   -2.4753   -3.2394    0.1728 C   0  0  0  0  0  0  0  0  0  0  0  0
   -3.0994   -1.9241    0.3849 C   0  0  0  0  0  0  0  0  0  0  0  0
   -2.7225   -0.8269   -0.5925 C   0  0  0  0  0  0  0  0  0  0  0  0
   -3.0522   -1.1009   -1.9964 C   0  0  0  0  0  0  0  0  0  0  0  0
   -2.6593   -0.0266   -2.9368 C   0  0  0  0  0  0  0  0  0  0  0  0
   -3.2380    1.3176   -2.8819 C   0  0  0  0  0  0  0  0  0  0  0  0
   -3.0939    2.1970   -1.7162 C   0  0  0  0  0  0  0  0  0  0  0  0
   -1.6611    2.5131   -1.3211 C   0  0  0  0  0  0  0  0  0  0  0  0
   -1.6309    3.4089   -0.1240 C   0  0  0  0  0  0  0  0  0  0  0  0
   -0.2393    3.7630    0.2983 C   0  0  0  0  0  0  0  0  0  0  0  0
    0.6122    2.5587    0.6909 C   0  0  0  0  0  0  0  0  0  0  0  0
    1.9367    3.0718    1.0916 C   0  0  0  0  0  0  0  0  0  0  0  0
    2.9854    2.1443    1.5431 C   0  0  0  0  0  0  0  0  0  0  0  0
    3.5144    1.1079    0.6569 C   0  0  0  0  0  0  0  0  0  0  0  0
    2.6778    0.0554    0.0850 C   0  0  0  0  0  0  0  0  0  0  0  0
    1.9529   -0.8190    1.0731 C   0  0  0  0  0  0  0  0  0  0  0  0
    2.9290   -1.5400    1.9872 C   0  0  0  0  0  0  0  0  0  0  0  0
    2.2276   -2.4302    2.9956 C   0  0  0  0  0  0  0  0  0  0  0  0
   -2.6979   -3.8854   -1.0045 O   0  0  0  0  0  0  0  0  0  0  0  0
   -1.0789   -3.1903    0.3697 O   0  0  0  0  0  0  0  0  0  0  0  0
   -2.8281   -3.9165    1.0059 H   0  0  0  0  0  0  0  0  0  0  0  0
   -2.7452   -1.5393    1.3789 H   0  0  0  0  0  0  0  0  0  0  0  0
   -4.1851   -1.9556    0.4637 H   0  0  0  0  0  0  0  0  0  0  0  0
   -1.6357   -0.5696   -0.4885 H   0  0  0  0  0  0  0  0  0  0  0  0
   -3.2830    0.0486   -0.2319 H   0  0  0  0  0  0  0  0  0  0  0  0
   -4.1721   -1.2615   -2.0962 H   0  0  0  0  0  0  0  0  0  0  0  0
   -2.6236   -2.0625   -2.3876 H   0  0  0  0  0  0  0  0  0  0  0  0
   -1.5215    0.0122   -2.9147 H   0  0  0  0  0  0  0  0  0  0  0  0
   -2.8681   -0.4318   -3.9866 H   0  0  0  0  0  0  0  0  0  0  0  0
   -2.9180    1.9140   -3.8030 H   0  0  0  0  0  0  0  0  0  0  0  0
   -4.3673    1.2384   -3.0706 H   0  0  0  0  0  0  0  0  0  0  0  0
   -3.7861    2.0551   -0.8802 H   0  0  0  0  0  0  0  0  0  0  0  0
   -3.4417    3.2440   -2.1183 H   0  0  0  0  0  0  0  0  0  0  0  0
   -1.1969    3.1063   -2.1615 H   0  0  0  0  0  0  0  0  0  0  0  0
   -1.0663    1.6073   -1.2162 H   0  0  0  0  0  0  0  0  0  0  0  0
   -2.1781    4.3478   -0.4386 H   0  0  0  0  0  0  0  0  0  0  0  0
   -2.2414    3.0188    0.7238 H   0  0  0  0  0  0  0  0  0  0  0  0
    0.2667    4.3587   -0.4942 H   0  0  0  0  0  0  0  0  0  0  0  0
   -0.3032    4.4775    1.1705 H   0  0  0  0  0  0  0  0  0  0  0  0
    0.0747    2.0756    1.5612 H   0  0  0  0  0  0  0  0  0  0  0  0
    0.5428    1.8576   -0.1206 H   0  0  0  0  0  0  0  0  0  0  0  0
    1.7491    3.7744    1.9667 H   0  0  0  0  0  0  0  0  0  0  0  0
    2.3545    3.7634    0.3177 H   0  0  0  0  0  0  0  0  0  0  0  0
    3.8815    2.8218    1.7713 H   0  0  0  0  0  0  0  0  0  0  0  0
    2.7636    1.7732    2.5910 H   0  0  0  0  0  0  0  0  0  0  0  0
    4.3924    0.6026    1.1795 H   0  0  0  0  0  0  0  0  0  0  0  0
    4.0240    1.6380   -0.2124 H   0  0  0  0  0  0  0  0  0  0  0  0
    3.4269   -0.6914   -0.3825 H   0  0  0  0  0  0  0  0  0  0  0  0
    2.0492    0.2883   -0.7892 H   0  0  0  0  0  0  0  0  0  0  0  0
    1.1666   -0.3150    1.6486 H   0  0  0  0  0  0  0  0  0  0  0  0
    1.4309   -1.6027    0.4790 H   0  0  0  0  0  0  0  0  0  0  0  0
    3.6456   -2.1160    1.3869 H   0  0  0  0  0  0  0  0  0  0  0  0
    3.4849   -0.7752    2.5666 H   0  0  0  0  0  0  0  0  0  0  0  0
    2.2774   -1.9911    4.0327 H   0  0  0  0  0  0  0  0  0  0  0  0
    2.7601   -3.4036    3.0918 H   0  0  0  0  0  0  0  0  0  0  0  0
    1.1465   -2.5506    2.7797 H   0  0  0  0  0  0  0  0  0  0  0  0
   -1.9160   -4.3597   -1.3912 H   0  0  0  0  0  0  0  0  0  0  0  0
   -0.8724   -3.0866    1.3152 H   0  0  0  0  0  0  0  0  0  0  0  0
  1  2  1  0
  1 19  1  0
  1 20  1  0
  2  3  1  0
  3  4  1  0
  4  5  1  0
  5  6  1  0
  6  7  1  0
  7  8  1  0
  8  9  1  0
  9 10  1  0
 10 11  1  0
 11 12  1  0
 12 13  1  0
 13 14  1  0
 14 15  1  0
 15 16  1  0
 16 17  1  0
 17 18  1  0
  1 21  1  0
  2 22  1  0
  2 23  1  0
  3 24  1  0
  3 25  1  0
  4 26  1  0
  4 27  1  0
  5 28  1  0
  5 29  1  0
  6 30  1  0
  6 31  1  0
  7 32  1  0
  7 33  1  0
  8 34  1  0
  8 35  1  0
  9 36  1  0
  9 37  1  0
 10 38  1  0
 10 39  1  0
 11 40  1  0
 11 41  1  0
 12 42  1  0
 12 43  1  0
 13 44  1  0
 13 45  1  0
 14 46  1  0
 14 47  1  0
 15 48  1  0
 15 49  1  0
 16 50  1  0
 16 51  1  0
 17 52  1  0
 17 53  1  0
 18 54  1  0
 18 55  1  0
 18 56  1  0
 19 57  1  0
 20 58  1  0
M  END
$$$$
FATTY ACID-BINDING PROTEIN
     RDKit          3D

 58 57  0  0  0  0  0  0  0  0999 V2000
   -0.2594    4.3033    0.5824 C   0  0  0  0  0  0  0  0  0  0  0  0
    0.1687    3.2205   -0.3170 C   0  0  0  0  0  0  0  0  0  0  0  0
   -0.4927    2.8570   -1.5443 C   0  0  0  0  0  0  0  0  0  0  0  0
   -1.7822    2.3084   -1.8641 C   0  0  0  0  0  0  0  0  0  0  0  0
   -3.1175    2.7851   -1.6534 C   0  0  0  0  0  0  0  0  0  0  0  0
   -3.8611    3.0056   -0.4273 C   0  0  0  0  0  0  0  0  0  0  0  0
   -4.1521    1.8775    0.4882 C   0  0  0  0  0  0  0  0  0  0  0  0
   -3.0173    1.1400    1.1182 C   0  0  0  0  0  0  0  0  0  0  0  0
   -3.6551    0.0384    1.9633 C   0  0  0  0  0  0  0  0  0  0  0  0
   -2.6771   -0.8134    2.6860 C   0  0  0  0  0  0  0  0  0  0  0  0
   -1.7569   -1.5065    1.7065 C   0  0  0  0  0  0  0  0  0  0  0  0
   -0.7743   -2.3778    2.4595 C   0  0  0  0  0  0  0  0  0  0  0  0
    0.1829   -3.1184    1.5790 C   0  0  0  0  0  0  0  0  0  0  0  0
    1.0140   -2.1712    0.7546 C   0  0  0  0  0  0  0  0  0  0  0  0
    1.9849   -2.8838   -0.1180 C   0  0  0  0  0  0  0  0  0  0  0  0
    3.0084   -3.7274    0.5128 C   0  0  0  0  0  0  0  0  0  0  0  0
    4.0047   -3.1606    1.4214 C   0  0  0  0  0  0  0  0  0  0  0  0
    3.6084   -2.4784    2.6605 C   0  0  0  0  0  0  0  0  0  0  0  0
    0.7447    4.3184    1.6359 O   0  0  0  0  0  0  0  0  0  0  0  0
   -1.4305    4.0907    1.2314 O   0  0  0  0  0  0  0  0  0  0  0  0
   -0.2724    5.2906    0.0961 H   0  0  0  0  0  0  0  0  0  0  0  0
    0.2319    2.2667    0.3370 H   0  0  0  0  0  0  0  0  0  0  0  0
    1.3183    3.3666   -0.4965 H   0  0  0  0  0  0  0  0  0  0  0  0
    0.3274    2.1771   -2.0969 H   0  0  0  0  0  0  0  0  0  0  0  0
   -0.3348    3.7722   -2.3122 H   0  0  0  0  0  0  0  0  0  0  0  0
   -1.7089    1.1506   -1.7018 H   0  0  0  0  0  0  0  0  0  0  0  0
   -1.7399    2.2084   -3.0703 H   0  0  0  0  0  0  0  0  0  0  0  0
   -3.8597    2.1926   -2.3461 H   0  0  0  0  0  0  0  0  0  0  0  0
   -3.1830    3.8009   -2.2233 H   0  0  0  0  0  0  0  0  0  0  0  0
   -3.6723    3.9462    0.1430 H   0  0  0  0  0  0  0  0  0  0  0  0
   -4.9506    3.2818   -0.8138 H   0  0  0  0  0  0  0  0  0  0  0  0
   -4.8515    1.1658   -0.0525 H   0  0  0  0  0  0  0  0  0  0  0  0
   -4.8190    2.2209    1.3493 H   0  0  0  0  0  0  0  0  0  0  0  0
   -2.2373    0.7725    0.4744 H   0  0  0  0  0  0  0  0  0  0  0  0
   -2.4920    1.7742    1.8964 H   0  0  0  0  0  0  0  0  0  0  0  0
   -4.3847   -0.5385    1.3627 H   0  0  0  0  0  0  0  0  0  0  0  0
   -4.2621    0.5970    2.7286 H   0  0  0  0  0  0  0  0  0  0  0  0
   -2.1042   -0.2722    3.4660 H   0  0  0  0  0  0  0  0  0  0  0  0
   -3.1991   -1.6360    3.2326 H   0  0  0  0  0  0  0  0  0  0  0  0
   -2.3793   -2.1220    1.0304 H   0  0  0  0  0  0  0  0  0  0  0  0
   -1.1488   -0.7726    1.1313 H   0  0  0  0  0  0  0  0  0  0  0  0
   -0.2318   -1.7995    3.2314 H   0  0  0  0  0  0  0  0  0  0  0  0
   -1.3845   -3.1368    3.0183 H   0  0  0  0  0  0  0  0  0  0  0  0
    0.8425   -3.7122    2.2342 H   0  0  0  0  0  0  0  0  0  0  0  0
   -0.3831   -3.7648    0.8635 H   0  0  0  0  0  0  0  0  0  0  0  0
    0.2806   -1.6771    0.0380 H   0  0  0  0  0  0  0  0  0  0  0  0
    1.3853   -1.3547    1.3623 H   0  0  0  0  0  0  0  0  0  0  0  0
    2.3726   -2.1790   -0.8887 H   0  0  0  0  0  0  0  0  0  0  0  0
    1.3480   -3.5875   -0.7409 H   0  0  0  0  0  0  0  0  0  0  0  0
    3.5736   -4.2246   -0.3365 H   0  0  0  0  0  0  0  0  0  0  0  0
    2.4681   -4.6150    0.9668 H   0  0  0  0  0  0  0  0  0  0  0  0
    4.6878   -4.0155    1.7273 H   0  0  0  0  0  0  0  0  0  0  0  0
    4.7301   -2.4903    0.8628 H   0  0  0  0  0  0  0  0  0  0  0  0
    3.4039   -1.3901    2.5818 H   0  0  0  0  0  0  0  0  0  0  0  0
    2.8599   -3.0398    3.2548 H   0  0  0  0  0  0  0  0  0  0  0  0
    4.5186   -2.4965    3.3488 H   0  0  0  0  0  0  0  0  0  0  0  0
    0.7410    3.3883    2.0009 H   0  0  0  0  0  0  0  0  0  0  0  0
   -1.5837    4.6112    2.0368 H   0  0  0  0  0  0  0  0  0  0  0  0
  1  2  1  0
  1 19  1  0
  1 20  1  0
  2  3  1  0
  3  4  1  0
  4  5  1  0
  5  6  1  0
  6  7  1  0
  7  8  1  0
  8  9  1  0
  9 10  1  0
 10 11  1  0
 11 12  1  0
 12 13  1  0
 13 14  1  0
 14 15  1  0
 15 16  1  0
 16 17  1  0
 17 18  1  0
  1 21  1  0
  2 22  1  0
  2 23  1  0
  3 24  1  0
  3 25  1  0
  4 26  1  0
  4 27  1  0
  5 28  1  0
  5 29  1  0
  6 30  1  0
  6 31  1  0
  7 32  1  0
  7 33  1  0
  8 34  1  0
  8 35  1  0
  9 36  1  0
  9 37  1  0
 10 38  1  0
 10 39  1  0
 11 40  1  0
 11 41  1  0
 12 42  1  0
 12 43  1  0
 13 44  1  0
 13 45  1  0
 14 46  1  0
 14 47  1  0
 15 48  1  0
 15 49  1  0
 16 50  1  0
 16 51  1  0
 17 52  1  0
 17 53  1  0
 18 54  1  0
 18 55  1  0
 18 56  1  0
 19 57  1  0
 20 58  1  0
M  END
$$$$
FATTY ACID-BINDING PROTEIN
     RDKit          3D

 58 57  0  0  0  0  0  0  0  0999 V2000
   -1.4260   -2.2757    2.7376 C   0  0  0  0  0  0  0  0  0  0  0  0
   -2.1238   -2.8087    1.5089 C   0  0  0  0  0  0  0  0  0  0  0  0
   -1.6741   -2.0035    0.2789 C   0  0  0  0  0  0  0  0  0  0  0  0
   -2.3732   -2.5620   -0.9235 C   0  0  0  0  0  0  0  0  0  0  0  0
   -2.0837   -1.9781   -2.2379 C   0  0  0  0  0  0  0  0  0  0  0  0
   -2.3742   -0.5975   -2.5829 C   0  0  0  0  0  0  0  0  0  0  0  0
   -1.7971    0.5549   -1.8946 C   0  0  0  0  0  0  0  0  0  0  0  0
   -0.2958    0.6554   -1.8552 C   0  0  0  0  0  0  0  0  0  0  0  0
    0.3271    0.6647   -3.2148 C   0  0  0  0  0  0  0  0  0  0  0  0
    1.7919    0.7326   -3.2858 C   0  0  0  0  0  0  0  0  0  0  0  0
    2.5770    1.8544   -2.8168 C   0  0  0  0  0  0  0  0  0  0  0  0
    2.5984    2.3550   -1.4440 C   0  0  0  0  0  0  0  0  0  0  0  0
    2.9822    1.3904   -0.3512 C   0  0  0  0  0  0  0  0  0  0  0  0
    3.0507    2.0615    0.9774 C   0  0  0  0  0  0  0  0  0  0  0  0
    1.8436    2.7280    1.4867 C   0  0  0  0  0  0  0  0  0  0  0  0
    0.6267    1.9164    1.7292 C   0  0  0  0  0  0  0  0  0  0  0  0
   -0.4389    2.9057    2.2383 C   0  0  0  0  0  0  0  0  0  0  0  0
   -1.7447    2.2541    2.5284 C   0  0  0  0  0  0  0  0  0  0  0  0
   -1.7455   -0.9421    2.9293 O   0  0  0  0  0  0  0  0  0  0  0  0
   -0.0477   -2.3463    2.4919 O   0  0  0  0  0  0  0  0  0  0  0  0
   -1.6614   -2.8874    3.6274 H   0  0  0  0  0  0  0  0  0  0  0  0
   -1.8935   -3.8747    1.3586 H   0  0  0  0  0  0  0  0  0  0  0  0
   -3.2013   -2.6559    1.6481 H   0  0  0  0  0  0  0  0  0  0  0  0
   -1.8238   -0.9571    0.4956 H   0  0  0  0  0  0  0  0  0  0  0  0
   -0.5872   -2.2804    0.1597 H   0  0  0  0  0  0  0  0  0  0  0  0
   -3.4940   -2.6253   -0.7129 H   0  0  0  0  0  0  0  0  0  0  0  0
   -2.0866   -3.6679   -0.9204 H   0  0  0  0  0  0  0  0  0  0  0  0
   -2.6791   -2.6146   -2.9911 H   0  0  0  0  0  0  0  0  0  0  0  0
   -1.0311   -2.3045   -2.5072 H   0  0  0  0  0  0  0  0  0  0  0  0
   -2.2674   -0.4979   -3.7180 H   0  0  0  0  0  0  0  0  0  0  0  0
   -3.5127   -0.4775   -2.4832 H   0  0  0  0  0  0  0  0  0  0  0  0
   -2.1029    1.4704   -2.5249 H   0  0  0  0  0  0  0  0  0  0  0  0
   -2.2839    0.7564   -0.9334 H   0  0  0  0  0  0  0  0  0  0  0  0
    0.2185   -0.0536   -1.2198 H   0  0  0  0  0  0  0  0  0  0  0  0
   -0.1029    1.6855   -1.4316 H   0  0  0  0  0  0  0  0  0  0  0  0
   -0.0793    1.4943   -3.8560 H   0  0  0  0  0  0  0  0  0  0  0  0
   -0.0843   -0.2616   -3.7325 H   0  0  0  0  0  0  0  0  0  0  0  0
    2.2018   -0.2476   -2.8805 H   0  0  0  0  0  0  0  0  0  0  0  0
    2.0460    0.6178   -4.4040 H   0  0  0  0  0  0  0  0  0  0  0  0
    3.6573    1.6462   -3.1202 H   0  0  0  0  0  0  0  0  0  0  0  0
    2.3605    2.7672   -3.4746 H   0  0  0  0  0  0  0  0  0  0  0  0
    3.4780    3.1114   -1.4193 H   0  0  0  0  0  0  0  0  0  0  0  0
    1.7484    3.0007   -1.2270 H   0  0  0  0  0  0  0  0  0  0  0  0
    2.3304    0.5191   -0.2461 H   0  0  0  0  0  0  0  0  0  0  0  0
    3.9812    0.9894   -0.6195 H   0  0  0  0  0  0  0  0  0  0  0  0
    3.8988    2.7842    0.9759 H   0  0  0  0  0  0  0  0  0  0  0  0
    3.3192    1.2487    1.7187 H   0  0  0  0  0  0  0  0  0  0  0  0
    1.5536    3.5571    0.7878 H   0  0  0  0  0  0  0  0  0  0  0  0
    2.0520    3.2735    2.4588 H   0  0  0  0  0  0  0  0  0  0  0  0
    0.1816    1.4024    0.8867 H   0  0  0  0  0  0  0  0  0  0  0  0
    0.7948    1.1503    2.5461 H   0  0  0  0  0  0  0  0  0  0  0  0
    0.0113    3.4272    3.0801 H   0  0  0  0  0  0  0  0  0  0  0  0
   -0.5489    3.6536    1.4028 H   0  0  0  0  0  0  0  0  0  0  0  0
   -1.6685    1.8152    3.5637 H   0  0  0  0  0  0  0  0  0  0  0  0
   -2.5276    3.0331    2.6186 H   0  0  0  0  0  0  0  0  0  0  0  0
   -2.0690    1.5298    1.7822 H   0  0  0  0  0  0  0  0  0  0  0  0
   -1.1346   -0.5239    3.5945 H   0  0  0  0  0  0  0  0  0  0  0  0
    0.2802   -1.4637    2.1308 H   0  0  0  0  0  0  0  0  0  0  0  0
  1  2  1  0
  1 19  1  0
  1 20  1  0
  2  3  1  0
  3  4  1  0
  4  5  1  0
  5  6  1  0
  6  7  1  0
  7  8  1  0
  8  9  1  0
  9 10  1  0
 10 11  1  0
 11 12  1  0
 12 13  1  0
 13 14  1  0
 14 15  1  0
 15 16  1  0
 16 17  1  0
 17 18  1  0
  1 21  1  0
  2 22  1  0
  2 23  1  0
  3 24  1  0
  3 25  1  0
  4 26  1  0
  4 27  1  0
  5 28  1  0
  5 29  1  0
  6 30  1  0
  6 31  1  0
  7 32  1  0
  7 33  1  0
  8 34  1  0
  8 35  1  0
  9 36  1  0
  9 37  1  0
 10 38  1  0
 10 39  1  0
 11 40  1  0
 11 41  1  0
 12 42  1  0
 12 43  1  0
 13 44  1  0
 13 45  1  0
 14 46  1  0
 14 47  1  0
 15 48  1  0
 15 49  1  0
 16 50  1  0
 16 51  1  0
 17 52  1  0
 17 53  1  0
 18 54  1  0
 18 55  1  0
 18 56  1  0
 19 57  1  0
 20 58  1  0
M  END
$$$$
FATTY ACID-BINDING PROTEIN
     RDKit          3D

 58 57  0  0  0  0  0  0  0  0999 V2000
    4.0878    0.4349    0.1873 C   0  0  0  0  0  0  0  0  0  0  0  0
    2.5803    0.5343    0.2095 C   0  0  0  0  0  0  0  0  0  0  0  0
    1.9367    0.5911   -1.1078 C   0  0  0  0  0  0  0  0  0  0  0  0
    2.2656    1.6986   -2.0282 C   0  0  0  0  0  0  0  0  0  0  0  0
    2.0006    3.0713   -1.5918 C   0  0  0  0  0  0  0  0  0  0  0  0
    0.6003    3.4502   -1.2675 C   0  0  0  0  0  0  0  0  0  0  0  0
   -0.3894    3.3314   -2.3570 C   0  0  0  0  0  0  0  0  0  0  0  0
   -1.7755    3.7490   -1.9279 C   0  0  0  0  0  0  0  0  0  0  0  0
   -2.3623    2.9566   -0.8163 C   0  0  0  0  0  0  0  0  0  0  0  0
   -2.5189    1.4822   -1.1402 C   0  0  0  0  0  0  0  0  0  0  0  0
   -3.1231    0.8472    0.0600 C   0  0  0  0  0  0  0  0  0  0  0  0
   -3.4066   -0.5921    0.0284 C   0  0  0  0  0  0  0  0  0  0  0  0
   -2.2394   -1.5260   -0.1894 C   0  0  0  0  0  0  0  0  0  0  0  0
   -1.2027   -1.3940    0.8892 C   0  0  0  0  0  0  0  0  0  0  0  0
   -0.0249   -2.2594    0.6941 C   0  0  0  0  0  0  0  0  0  0  0  0
   -0.1108   -3.7147    0.6841 C   0  0  0  0  0  0  0  0  0  0  0  0
   -0.9105   -4.4597   -0.2940 C   0  0  0  0  0  0  0  0  0  0  0  0
   -0.5800   -4.2181   -1.7475 C   0  0  0  0  0  0  0  0  0  0  0  0
    4.6464    1.5196   -0.4424 O   0  0  0  0  0  0  0  0  0  0  0  0
    4.6009    0.2997    1.4853 O   0  0  0  0  0  0  0  0  0  0  0  0
    4.3464   -0.5204   -0.3541 H   0  0  0  0  0  0  0  0  0  0  0  0
    2.3468    1.3586    0.9043 H   0  0  0  0  0  0  0  0  0  0  0  0
    2.2462   -0.3863    0.7542 H   0  0  0  0  0  0  0  0  0  0  0  0
    2.1539   -0.4014   -1.5988 H   0  0  0  0  0  0  0  0  0  0  0  0
    0.8304    0.5609   -0.9996 H   0  0  0  0  0  0  0  0  0  0  0  0
    1.7363    1.5471   -3.0212 H   0  0  0  0  0  0  0  0  0  0  0  0
    3.3297    1.6144   -2.3296 H   0  0  0  0  0  0  0  0  0  0  0  0
    2.2928    3.7292   -2.4685 H   0  0  0  0  0  0  0  0  0  0  0  0
    2.7012    3.4230   -0.8062 H   0  0  0  0  0  0  0  0  0  0  0  0
    0.5652    4.4938   -0.8871 H   0  0  0  0  0  0  0  0  0  0  0  0
    0.2064    2.8494   -0.4022 H   0  0  0  0  0  0  0  0  0  0  0  0
   -0.5084    2.3245   -2.7856 H   0  0  0  0  0  0  0  0  0  0  0  0
   -0.1247    4.0042   -3.2109 H   0  0  0  0  0  0  0  0  0  0  0  0
   -2.4741    3.8351   -2.7803 H   0  0  0  0  0  0  0  0  0  0  0  0
   -1.6672    4.7997   -1.5425 H   0  0  0  0  0  0  0  0  0  0  0  0
   -3.3565    3.3476   -0.5950 H   0  0  0  0  0  0  0  0  0  0  0  0
   -1.7592    3.1003    0.1084 H   0  0  0  0  0  0  0  0  0  0  0  0
   -1.5147    1.1326   -1.4004 H   0  0  0  0  0  0  0  0  0  0  0  0
   -3.2212    1.4288   -1.9974 H   0  0  0  0  0  0  0  0  0  0  0  0
   -2.5063    1.0922    0.9735 H   0  0  0  0  0  0  0  0  0  0  0  0
   -4.0820    1.3742    0.2493 H   0  0  0  0  0  0  0  0  0  0  0  0
   -4.2133   -0.8449   -0.6903 H   0  0  0  0  0  0  0  0  0  0  0  0
   -3.8143   -0.8741    1.0225 H   0  0  0  0  0  0  0  0  0  0  0  0
   -2.6859   -2.5354   -0.1114 H   0  0  0  0  0  0  0  0  0  0  0  0
   -1.7864   -1.4396   -1.1789 H   0  0  0  0  0  0  0  0  0  0  0  0
   -1.6933   -1.5358    1.8911 H   0  0  0  0  0  0  0  0  0  0  0  0
   -0.9124   -0.2909    0.9262 H   0  0  0  0  0  0  0  0  0  0  0  0
    0.6790   -1.9990    1.5697 H   0  0  0  0  0  0  0  0  0  0  0  0
    0.5873   -1.8457   -0.1702 H   0  0  0  0  0  0  0  0  0  0  0  0
    0.9352   -4.1461    0.6658 H   0  0  0  0  0  0  0  0  0  0  0  0
   -0.4761   -4.0416    1.7065 H   0  0  0  0  0  0  0  0  0  0  0  0
   -1.9821   -4.6018   -0.0895 H   0  0  0  0  0  0  0  0  0  0  0  0
   -0.5390   -5.5643   -0.1628 H   0  0  0  0  0  0  0  0  0  0  0  0
   -1.4970   -4.4578   -2.3248 H   0  0  0  0  0  0  0  0  0  0  0  0
    0.2513   -4.8247   -2.1337 H   0  0  0  0  0  0  0  0  0  0  0  0
   -0.3118   -3.1639   -1.9552 H   0  0  0  0  0  0  0  0  0  0  0  0
    5.3199    1.9352    0.1449 H   0  0  0  0  0  0  0  0  0  0  0  0
    4.0251    0.8536    2.0760 H   0  0  0  0  0  0  0  0  0  0  0  0
  1  2  1  0
  1 19  1  0
  1 20  1  0
  2  3  1  0
  3  4  1  0
  4  5  1  0
  5  6  1  0
  6  7  1  0
  7  8  1  0
  8  9  1  0
  9 10  1  0
 10 11  1  0
 11 12  1  0
 12 13  1  0
 13 14  1  0
 14 15  1  0
 15 16  1  0
 16 17  1  0
 17 18  1  0
  1 21  1  0
  2 22  1  0
  2 23  1  0
  3 24  1  0
  3 25  1  0
  4 26  1  0
  4 27  1  0
  5 28  1  0
  5 29  1  0
  6 30  1  0
  6 31  1  0
  7 32  1  0
  7 33  1  0
  8 34  1  0
  8 35  1  0
  9 36  1  0
  9 37  1  0
 10 38  1  0
 10 39  1  0
 11 40  1  0
 11 41  1  0
 12 42  1  0
 12 43  1  0
 13 44  1  0
 13 45  1  0
 14 46  1  0
 14 47  1  0
 15 48  1  0
 15 49  1  0
 16 50  1  0
 16 51  1  0
 17 52  1  0
 17 53  1  0
 18 54  1  0
 18 55  1  0
 18 56  1  0
 19 57  1  0
 20 58  1  0
M  END
$$$$
FATTY ACID-BINDING PROTEIN
     RDKit          3D

 58 57  0  0  0  0  0  0  0  0999 V2000
    3.6286   -3.0353    1.3846 C   0  0  0  0  0  0  0  0  0  0  0  0
    2.5676   -3.1655    2.4408 C   0  0  0  0  0  0  0  0  0  0  0  0
    1.8269   -1.8246    2.5020 C   0  0  0  0  0  0  0  0  0  0  0  0
    0.7673   -1.9705    3.5641 C   0  0  0  0  0  0  0  0  0  0  0  0
   -0.0725   -0.7401    3.7698 C   0  0  0  0  0  0  0  0  0  0  0  0
   -0.8219   -0.3173    2.5232 C   0  0  0  0  0  0  0  0  0  0  0  0
   -1.5967    0.9295    2.9496 C   0  0  0  0  0  0  0  0  0  0  0  0
   -2.4220    1.5224    1.8645 C   0  0  0  0  0  0  0  0  0  0  0  0
   -1.5679    1.9406    0.6485 C   0  0  0  0  0  0  0  0  0  0  0  0
   -0.5574    2.9425    1.0061 C   0  0  0  0  0  0  0  0  0  0  0  0
    0.3096    3.4552   -0.0699 C   0  0  0  0  0  0  0  0  0  0  0  0
   -0.2078    4.2122   -1.1966 C   0  0  0  0  0  0  0  0  0  0  0  0
   -1.1601    3.7981   -2.2109 C   0  0  0  0  0  0  0  0  0  0  0  0
   -0.8461    2.6934   -3.1228 C   0  0  0  0  0  0  0  0  0  0  0  0
   -0.6484    1.3534   -2.5360 C   0  0  0  0  0  0  0  0  0  0  0  0
   -0.3485    0.3715   -3.6753 C   0  0  0  0  0  0  0  0  0  0  0  0
   -0.1350   -1.0194   -3.1484 C   0  0  0  0  0  0  0  0  0  0  0  0
   -1.3250   -1.5589   -2.4158 C   0  0  0  0  0  0  0  0  0  0  0  0
    4.4998   -2.0139    1.7216 O   0  0  0  0  0  0  0  0  0  0  0  0
    4.2531   -4.2544    1.1579 O   0  0  0  0  0  0  0  0  0  0  0  0
    3.1165   -2.7184    0.4358 H   0  0  0  0  0  0  0  0  0  0  0  0
    2.9865   -3.3475    3.4332 H   0  0  0  0  0  0  0  0  0  0  0  0
    1.7889   -3.8995    2.1298 H   0  0  0  0  0  0  0  0  0  0  0  0
    1.4536   -1.6046    1.5057 H   0  0  0  0  0  0  0  0  0  0  0  0
    2.6036   -1.0907    2.7988 H   0  0  0  0  0  0  0  0  0  0  0  0
    1.2880   -2.1533    4.5269 H   0  0  0  0  0  0  0  0  0  0  0  0
    0.1328   -2.8576    3.3709 H   0  0  0  0  0  0  0  0  0  0  0  0
   -0.8349   -1.0110    4.5286 H   0  0  0  0  0  0  0  0  0  0  0  0
    0.4877    0.1183    4.1371 H   0  0  0  0  0  0  0  0  0  0  0  0
   -0.1068    0.0412    1.7311 H   0  0  0  0  0  0  0  0  0  0  0  0
   -1.5301   -1.0508    2.1436 H   0  0  0  0  0  0  0  0  0  0  0  0
   -0.8434    1.6638    3.2927 H   0  0  0  0  0  0  0  0  0  0  0  0
   -2.1943    0.6972    3.8659 H   0  0  0  0  0  0  0  0  0  0  0  0
   -3.2029    0.8200    1.5402 H   0  0  0  0  0  0  0  0  0  0  0  0
   -2.8252    2.4816    2.2486 H   0  0  0  0  0  0  0  0  0  0  0  0
   -2.2886    2.2656   -0.0925 H   0  0  0  0  0  0  0  0  0  0  0  0
   -1.0725    1.0164    0.2432 H   0  0  0  0  0  0  0  0  0  0  0  0
   -1.0701    3.8413    1.4831 H   0  0  0  0  0  0  0  0  0  0  0  0
    0.1445    2.5032    1.7861 H   0  0  0  0  0  0  0  0  0  0  0  0
    1.0989    2.6717   -0.3096 H   0  0  0  0  0  0  0  0  0  0  0  0
    1.0251    4.2150    0.4815 H   0  0  0  0  0  0  0  0  0  0  0  0
    0.6755    4.6823   -1.7954 H   0  0  0  0  0  0  0  0  0  0  0  0
   -0.6143    5.2182   -0.7343 H   0  0  0  0  0  0  0  0  0  0  0  0
   -2.2085    3.7374   -1.7880 H   0  0  0  0  0  0  0  0  0  0  0  0
   -1.2731    4.7308   -2.9050 H   0  0  0  0  0  0  0  0  0  0  0  0
    0.0407    2.9825   -3.7916 H   0  0  0  0  0  0  0  0  0  0  0  0
   -1.6565    2.5625   -3.9220 H   0  0  0  0  0  0  0  0  0  0  0  0
   -1.5988    0.9576   -2.0734 H   0  0  0  0  0  0  0  0  0  0  0  0
    0.1345    1.3411   -1.7924 H   0  0  0  0  0  0  0  0  0  0  0  0
   -1.2074    0.3421   -4.3740 H   0  0  0  0  0  0  0  0  0  0  0  0
    0.5426    0.6802   -4.2385 H   0  0  0  0  0  0  0  0  0  0  0  0
    0.0720   -1.6586   -4.0312 H   0  0  0  0  0  0  0  0  0  0  0  0
    0.7723   -1.0790   -2.4964 H   0  0  0  0  0  0  0  0  0  0  0  0
   -1.4161   -2.6477   -2.6366 H   0  0  0  0  0  0  0  0  0  0  0  0
   -2.2861   -1.1133   -2.6728 H   0  0  0  0  0  0  0  0  0  0  0  0
   -1.1696   -1.4314   -1.3292 H   0  0  0  0  0  0  0  0  0  0  0  0
    5.2783   -2.0173    1.0823 H   0  0  0  0  0  0  0  0  0  0  0  0
    3.8996   -4.9359    1.7747 H   0  0  0  0  0  0  0  0  0  0  0  0
  1  2  1  0
  1 19  1  0
  1 20  1  0
  2  3  1  0
  3  4  1  0
  4  5  1  0
  5  6  1  0
  6  7  1  0
  7  8  1  0
  8  9  1  0
  9 10  1  0
 10 11  1  0
 11 12  1  0
 12 13  1  0
 13 14  1  0
 14 15  1  0
 15 16  1  0
 16 17  1  0
 17 18  1  0
  1 21  1  0
  2 22  1  0
  2 23  1  0
  3 24  1  0
  3 25  1  0
  4 26  1  0
  4 27  1  0
  5 28  1  0
  5 29  1  0
  6 30  1  0
  6 31  1  0
  7 32  1  0
  7 33  1  0
  8 34  1  0
  8 35  1  0
  9 36  1  0
  9 37  1  0
 10 38  1  0
 10 39  1  0
 11 40  1  0
 11 41  1  0
 12 42  1  0
 12 43  1  0
 13 44  1  0
 13 45  1  0
 14 46  1  0
 14 47  1  0
 15 48  1  0
 15 49  1  0
 16 50  1  0
 16 51  1  0
 17 52  1  0
 17 53  1  0
 18 54  1  0
 18 55  1  0
 18 56  1  0
 19 57  1  0
 20 58  1  0
M  END
$$$$
FATTY ACID-BINDING PROTEIN
     RDKit          3D

 58 57  0  0  0  0  0  0  0  0999 V2000
   -2.4094    2.1606    1.8104 C   0  0  0  0  0  0  0  0  0  0  0  0
   -1.4567    2.2928    0.6269 C   0  0  0  0  0  0  0  0  0  0  0  0
   -1.3762    3.7055    0.1419 C   0  0  0  0  0  0  0  0  0  0  0  0
   -0.4433    3.8704   -1.0298 C   0  0  0  0  0  0  0  0  0  0  0  0
    0.9746    3.4944   -0.7722 C   0  0  0  0  0  0  0  0  0  0  0  0
    1.8619    3.6928   -1.9926 C   0  0  0  0  0  0  0  0  0  0  0  0
    3.2472    3.3050   -1.8112 C   0  0  0  0  0  0  0  0  0  0  0  0
    3.7298    1.9328   -1.6296 C   0  0  0  0  0  0  0  0  0  0  0  0
    3.6412    0.9504   -2.7038 C   0  0  0  0  0  0  0  0  0  0  0  0
    2.4572    0.4110   -3.3401 C   0  0  0  0  0  0  0  0  0  0  0  0
    1.4935   -0.4701   -2.6728 C   0  0  0  0  0  0  0  0  0  0  0  0
    0.7814    0.0335   -1.4970 C   0  0  0  0  0  0  0  0  0  0  0  0
   -0.2110   -0.9840   -0.9186 C   0  0  0  0  0  0  0  0  0  0  0  0
    0.4140   -2.2543   -0.4798 C   0  0  0  0  0  0  0  0  0  0  0  0
   -0.6386   -3.1848    0.0599 C   0  0  0  0  0  0  0  0  0  0  0  0
   -1.3235   -2.5641    1.2237 C   0  0  0  0  0  0  0  0  0  0  0  0
   -2.3904   -3.4783    1.8200 C   0  0  0  0  0  0  0  0  0  0  0  0
   -3.4521   -3.8116    0.8095 C   0  0  0  0  0  0  0  0  0  0  0  0
   -2.0095    2.9422    2.8910 O   0  0  0  0  0  0  0  0  0  0  0  0
   -2.4614    0.8397    2.2471 O   0  0  0  0  0  0  0  0  0  0  0  0
   -3.4148    2.5116    1.5291 H   0  0  0  0  0  0  0  0  0  0  0  0
   -0.4629    1.8981    0.8771 H   0  0  0  0  0  0  0  0  0  0  0  0
   -1.8843    1.6188   -0.1623 H   0  0  0  0  0  0  0  0  0  0  0  0
   -2.3949    3.9758   -0.2661 H   0  0  0  0  0  0  0  0  0  0  0  0
   -1.1032    4.3972    0.9665 H   0  0  0  0  0  0  0  0  0  0  0  0
   -0.9049    3.2561   -1.8578 H   0  0  0  0  0  0  0  0  0  0  0  0
   -0.5187    4.9225   -1.4195 H   0  0  0  0  0  0  0  0  0  0  0  0
    1.0416    2.5149   -0.3104 H   0  0  0  0  0  0  0  0  0  0  0  0
    1.3684    4.2575   -0.0162 H   0  0  0  0  0  0  0  0  0  0  0  0
    1.8384    4.8156   -2.1585 H   0  0  0  0  0  0  0  0  0  0  0  0
    1.3414    3.3066   -2.8905 H   0  0  0  0  0  0  0  0  0  0  0  0
    3.9026    3.8289   -2.5991 H   0  0  0  0  0  0  0  0  0  0  0  0
    3.6103    3.8704   -0.8768 H   0  0  0  0  0  0  0  0  0  0  0  0
    4.8571    2.0542   -1.3861 H   0  0  0  0  0  0  0  0  0  0  0  0
    3.3860    1.4802   -0.6588 H   0  0  0  0  0  0  0  0  0  0  0  0
    4.4233    1.1729   -3.5282 H   0  0  0  0  0  0  0  0  0  0  0  0
    4.1810    0.0097   -2.2652 H   0  0  0  0  0  0  0  0  0  0  0  0
    2.8414   -0.1768   -4.2677 H   0  0  0  0  0  0  0  0  0  0  0  0
    1.8340    1.1991   -3.8804 H   0  0  0  0  0  0  0  0  0  0  0  0
    0.6980   -0.7636   -3.4490 H   0  0  0  0  0  0  0  0  0  0  0  0
    1.9481   -1.5070   -2.4676 H   0  0  0  0  0  0  0  0  0  0  0  0
    0.1301    0.9019   -1.7535 H   0  0  0  0  0  0  0  0  0  0  0  0
    1.4797    0.2246   -0.6593 H   0  0  0  0  0  0  0  0  0  0  0  0
   -1.0163   -1.1805   -1.6423 H   0  0  0  0  0  0  0  0  0  0  0  0
   -0.6696   -0.4340   -0.0572 H   0  0  0  0  0  0  0  0  0  0  0  0
    0.8520   -2.7957   -1.3690 H   0  0  0  0  0  0  0  0  0  0  0  0
    1.2062   -2.1285    0.2873 H   0  0  0  0  0  0  0  0  0  0  0  0
   -1.4227   -3.3331   -0.7375 H   0  0  0  0  0  0  0  0  0  0  0  0
   -0.2492   -4.2028    0.2557 H   0  0  0  0  0  0  0  0  0  0  0  0
   -0.6065   -2.2512    1.9919 H   0  0  0  0  0  0  0  0  0  0  0  0
   -1.9184   -1.6721    0.8664 H   0  0  0  0  0  0  0  0  0  0  0  0
   -1.9690   -4.3817    2.2868 H   0  0  0  0  0  0  0  0  0  0  0  0
   -2.9030   -2.8727    2.6092 H   0  0  0  0  0  0  0  0  0  0  0  0
   -3.6832   -2.9335    0.1889 H   0  0  0  0  0  0  0  0  0  0  0  0
   -4.4071   -4.0838    1.3074 H   0  0  0  0  0  0  0  0  0  0  0  0
   -3.1720   -4.6912    0.1786 H   0  0  0  0  0  0  0  0  0  0  0  0
   -2.6001    3.6977    3.0802 H   0  0  0  0  0  0  0  0  0  0  0  0
   -3.3989    0.6346    2.4662 H   0  0  0  0  0  0  0  0  0  0  0  0
  1  2  1  0
  1 19  1  0
  1 20  1  0
  2  3  1  0
  3  4  1  0
  4  5  1  0
  5  6  1  0
  6  7  1  0
  7  8  1  0
  8  9  1  0
  9 10  1  0
 10 11  1  0
 11 12  1  0
 12 13  1  0
 13 14  1  0
 14 15  1  0
 15 16  1  0
 16 17  1  0
 17 18  1  0
  1 21  1  0
  2 22  1  0
  2 23  1  0
  3 24  1  0
  3 25  1  0
  4 26  1  0
  4 27  1  0
  5 28  1  0
  5 29  1  0
  6 30  1  0
  6 31  1  0
  7 32  1  0
  7 33  1  0
  8 34  1  0
  8 35  1  0
  9 36  1  0
  9 37  1  0
 10 38  1  0
 10 39  1  0
 11 40  1  0
 11 41  1  0
 12 42  1  0
 12 43  1  0
 13 44  1  0
 13 45  1  0
 14 46  1  0
 14 47  1  0
 15 48  1  0
 15 49  1  0
 16 50  1  0
 16 51  1  0
 17 52  1  0
 17 53  1  0
 18 54  1  0
 18 55  1  0
 18 56  1  0
 19 57  1  0
 20 58  1  0
M  END
$$$$
FATTY ACID-BINDING PROTEIN
     RDKit          3D

 58 57  0  0  0  0  0  0  0  0999 V2000
    3.8705    5.0185   -2.1063 C   0  0  0  0  0  0  0  0  0  0  0  0
    2.4866    5.5517   -1.7871 C   0  0  0  0  0  0  0  0  0  0  0  0
    1.5097    4.3679   -1.6059 C   0  0  0  0  0  0  0  0  0  0  0  0
    0.1951    4.9711   -1.2996 C   0  0  0  0  0  0  0  0  0  0  0  0
   -0.9721    4.0970   -1.0828 C   0  0  0  0  0  0  0  0  0  0  0  0
   -1.0080    3.1373    0.0196 C   0  0  0  0  0  0  0  0  0  0  0  0
   -0.0202    2.0543    0.1435 C   0  0  0  0  0  0  0  0  0  0  0  0
    0.0547    1.1164   -1.0201 C   0  0  0  0  0  0  0  0  0  0  0  0
    1.1382    0.0736   -0.7041 C   0  0  0  0  0  0  0  0  0  0  0  0
    1.2669   -0.8760   -1.8387 C   0  0  0  0  0  0  0  0  0  0  0  0
    0.0987   -1.6767   -2.2224 C   0  0  0  0  0  0  0  0  0  0  0  0
   -0.4739   -2.6510   -1.2521 C   0  0  0  0  0  0  0  0  0  0  0  0
    0.5282   -3.7138   -0.8491 C   0  0  0  0  0  0  0  0  0  0  0  0
    0.0474   -4.7874    0.0231 C   0  0  0  0  0  0  0  0  0  0  0  0
   -0.5165   -4.6209    1.3576 C   0  0  0  0  0  0  0  0  0  0  0  0
    0.2582   -4.0336    2.4692 C   0  0  0  0  0  0  0  0  0  0  0  0
    0.6235   -2.6058    2.3959 C   0  0  0  0  0  0  0  0  0  0  0  0
   -0.6010   -1.7046    2.3967 C   0  0  0  0  0  0  0  0  0  0  0  0
    4.2897    4.2091   -1.0424 O   0  0  0  0  0  0  0  0  0  0  0  0
    4.7890    6.0615   -2.1780 O   0  0  0  0  0  0  0  0  0  0  0  0
    3.8643    4.4276   -3.0283 H   0  0  0  0  0  0  0  0  0  0  0  0
    2.1443    6.2139   -2.6082 H   0  0  0  0  0  0  0  0  0  0  0  0
    2.5240    6.1452   -0.8540 H   0  0  0  0  0  0  0  0  0  0  0  0
    1.5196    3.8461   -2.6079 H   0  0  0  0  0  0  0  0  0  0  0  0
    1.9493    3.6715   -0.9125 H   0  0  0  0  0  0  0  0  0  0  0  0
    0.2426    5.7246   -0.4704 H   0  0  0  0  0  0  0  0  0  0  0  0
   -0.0624    5.6242   -2.1977 H   0  0  0  0  0  0  0  0  0  0  0  0
   -1.8385    4.8195   -0.8802 H   0  0  0  0  0  0  0  0  0  0  0  0
   -1.3118    3.6621   -2.0726 H   0  0  0  0  0  0  0  0  0  0  0  0
   -2.0339    2.6878    0.0630 H   0  0  0  0  0  0  0  0  0  0  0  0
   -0.9511    3.7298    0.9832 H   0  0  0  0  0  0  0  0  0  0  0  0
   -0.4616    1.3784    0.9763 H   0  0  0  0  0  0  0  0  0  0  0  0
    0.9575    2.3056    0.5931 H   0  0  0  0  0  0  0  0  0  0  0  0
   -0.8952    0.5532   -1.1248 H   0  0  0  0  0  0  0  0  0  0  0  0
    0.3818    1.5769   -1.9712 H   0  0  0  0  0  0  0  0  0  0  0  0
    2.0904    0.6905   -0.7108 H   0  0  0  0  0  0  0  0  0  0  0  0
    1.0782   -0.3349    0.2940 H   0  0  0  0  0  0  0  0  0  0  0  0
    1.5345   -0.2397   -2.7398 H   0  0  0  0  0  0  0  0  0  0  0  0
    2.2060   -1.4954   -1.7096 H   0  0  0  0  0  0  0  0  0  0  0  0
    0.4077   -2.2941   -3.1243 H   0  0  0  0  0  0  0  0  0  0  0  0
   -0.7379   -1.0420   -2.6218 H   0  0  0  0  0  0  0  0  0  0  0  0
   -1.2615   -3.2247   -1.8342 H   0  0  0  0  0  0  0  0  0  0  0  0
   -1.0218   -2.2074   -0.4250 H   0  0  0  0  0  0  0  0  0  0  0  0
    1.5027   -3.2646   -0.5402 H   0  0  0  0  0  0  0  0  0  0  0  0
    0.8614   -4.2542   -1.8266 H   0  0  0  0  0  0  0  0  0  0  0  0
    0.8670   -5.6163    0.1117 H   0  0  0  0  0  0  0  0  0  0  0  0
   -0.6965   -5.3887   -0.6493 H   0  0  0  0  0  0  0  0  0  0  0  0
   -1.4835   -4.0264    1.3029 H   0  0  0  0  0  0  0  0  0  0  0  0
   -0.8683   -5.6812    1.6709 H   0  0  0  0  0  0  0  0  0  0  0  0
   -0.3412   -4.2224    3.4294 H   0  0  0  0  0  0  0  0  0  0  0  0
    1.1939   -4.6623    2.5678 H   0  0  0  0  0  0  0  0  0  0  0  0
    1.2217   -2.3765    1.5211 H   0  0  0  0  0  0  0  0  0  0  0  0
    1.2511   -2.3639    3.2994 H   0  0  0  0  0  0  0  0  0  0  0  0
   -0.9475   -1.6284    3.4832 H   0  0  0  0  0  0  0  0  0  0  0  0
   -1.4671   -2.1111    1.8697 H   0  0  0  0  0  0  0  0  0  0  0  0
   -0.3346   -0.6713    2.1391 H   0  0  0  0  0  0  0  0  0  0  0  0
    4.0874    4.6193   -0.1612 H   0  0  0  0  0  0  0  0  0  0  0  0
    4.7492    6.5946   -1.3460 H   0  0  0  0  0  0  0  0  0  0  0  0
  1  2  1  0
  1 19  1  0
  1 20  1  0
  2  3  1  0
  3  4  1  0
  4  5  1  0
  5  6  1  0
  6  7  1  0
  7  8  1  0
  8  9  1  0
  9 10  1  0
 10 11  1  0
 11 12  1  0
 12 13  1  0
 13 14  1  0
 14 15  1  0
 15 16  1  0
 16 17  1  0
 17 18  1  0
  1 21  1  0
  2 22  1  0
  2 23  1  0
  3 24  1  0
  3 25  1  0
  4 26  1  0
  4 27  1  0
  5 28  1  0
  5 29  1  0
  6 30  1  0
  6 31  1  0
  7 32  1  0
  7 33  1  0
  8 34  1  0
  8 35  1  0
  9 36  1  0
  9 37  1  0
 10 38  1  0
 10 39  1  0
 11 40  1  0
 11 41  1  0
 12 42  1  0
 12 43  1  0
 13 44  1  0
 13 45  1  0
 14 46  1  0
 14 47  1  0
 15 48  1  0
 15 49  1  0
 16 50  1  0
 16 51  1  0
 17 52  1  0
 17 53  1  0
 18 54  1  0
 18 55  1  0
 18 56  1  0
 19 57  1  0
 20 58  1  0
M  END
$$$$
FATTY ACID-BINDING PROTEIN
     RDKit          3D

 58 57  0  0  0  0  0  0  0  0999 V2000
    1.5730   -6.6690   -0.8177 C   0  0  0  0  0  0  0  0  0  0  0  0
    0.7009   -5.6630   -1.5791 C   0  0  0  0  0  0  0  0  0  0  0  0
   -0.1275   -4.9716   -0.5284 C   0  0  0  0  0  0  0  0  0  0  0  0
   -1.0583   -3.9398   -1.0549 C   0  0  0  0  0  0  0  0  0  0  0  0
   -0.3756   -2.8135   -1.7889 C   0  0  0  0  0  0  0  0  0  0  0  0
    0.5921   -2.0851   -0.8958 C   0  0  0  0  0  0  0  0  0  0  0  0
    1.3126   -0.9489   -1.5533 C   0  0  0  0  0  0  0  0  0  0  0  0
    0.3581    0.1218   -2.0665 C   0  0  0  0  0  0  0  0  0  0  0  0
   -0.4403    0.6822   -0.9244 C   0  0  0  0  0  0  0  0  0  0  0  0
   -1.4083    1.7337   -1.2830 C   0  0  0  0  0  0  0  0  0  0  0  0
   -0.8950    2.9677   -1.9081 C   0  0  0  0  0  0  0  0  0  0  0  0
    0.0815    3.7512   -1.1128 C   0  0  0  0  0  0  0  0  0  0  0  0
   -0.4326    4.2437    0.2208 C   0  0  0  0  0  0  0  0  0  0  0  0
    0.7143    5.0127    0.8629 C   0  0  0  0  0  0  0  0  0  0  0  0
    0.3238    5.5610    2.2140 C   0  0  0  0  0  0  0  0  0  0  0  0
   -0.8543    6.5100    2.1175 C   0  0  0  0  0  0  0  0  0  0  0  0
   -1.1203    6.9715    3.5560 C   0  0  0  0  0  0  0  0  0  0  0  0
    0.0598    7.6680    4.1515 C   0  0  0  0  0  0  0  0  0  0  0  0
    2.3774   -7.3627   -1.6885 O   0  0  0  0  0  0  0  0  0  0  0  0
    0.7571   -7.4865   -0.0514 O   0  0  0  0  0  0  0  0  0  0  0  0
    2.2385   -6.1166   -0.1241 H   0  0  0  0  0  0  0  0  0  0  0  0
    1.3235   -5.0178   -2.1920 H   0  0  0  0  0  0  0  0  0  0  0  0
    0.0681   -6.2807   -2.2476 H   0  0  0  0  0  0  0  0  0  0  0  0
    0.4887   -4.5976    0.3129 H   0  0  0  0  0  0  0  0  0  0  0  0
   -0.7622   -5.7704   -0.0748 H   0  0  0  0  0  0  0  0  0  0  0  0
   -1.5345   -3.4610   -0.1616 H   0  0  0  0  0  0  0  0  0  0  0  0
   -1.8832   -4.3518   -1.6380 H   0  0  0  0  0  0  0  0  0  0  0  0
    0.0830   -3.1094   -2.7310 H   0  0  0  0  0  0  0  0  0  0  0  0
   -1.1979   -2.0941   -2.0368 H   0  0  0  0  0  0  0  0  0  0  0  0
    0.1409   -1.8315    0.0667 H   0  0  0  0  0  0  0  0  0  0  0  0
    1.3995   -2.8308   -0.6413 H   0  0  0  0  0  0  0  0  0  0  0  0
    1.8421   -1.3795   -2.4516 H   0  0  0  0  0  0  0  0  0  0  0  0
    2.0520   -0.5709   -0.8381 H   0  0  0  0  0  0  0  0  0  0  0  0
   -0.3059   -0.4152   -2.7757 H   0  0  0  0  0  0  0  0  0  0  0  0
    0.9395    0.8432   -2.6387 H   0  0  0  0  0  0  0  0  0  0  0  0
   -1.0139   -0.1709   -0.5048 H   0  0  0  0  0  0  0  0  0  0  0  0
    0.2102    1.0333   -0.1059 H   0  0  0  0  0  0  0  0  0  0  0  0
   -2.1423    1.2890   -2.0117 H   0  0  0  0  0  0  0  0  0  0  0  0
   -2.0220    1.9588   -0.3918 H   0  0  0  0  0  0  0  0  0  0  0  0
   -0.4734    2.8034   -2.9037 H   0  0  0  0  0  0  0  0  0  0  0  0
   -1.7779    3.6345   -2.0729 H   0  0  0  0  0  0  0  0  0  0  0  0
    1.0900    3.3012   -1.0082 H   0  0  0  0  0  0  0  0  0  0  0  0
    0.2712    4.6916   -1.7079 H   0  0  0  0  0  0  0  0  0  0  0  0
   -0.8209    3.4630    0.8728 H   0  0  0  0  0  0  0  0  0  0  0  0
   -1.2357    5.0001    0.0949 H   0  0  0  0  0  0  0  0  0  0  0  0
    1.5699    4.3433    0.9856 H   0  0  0  0  0  0  0  0  0  0  0  0
    1.0317    5.8130    0.1642 H   0  0  0  0  0  0  0  0  0  0  0  0
    0.0936    4.7219    2.8878 H   0  0  0  0  0  0  0  0  0  0  0  0
    1.2173    6.0782    2.6195 H   0  0  0  0  0  0  0  0  0  0  0  0
   -0.6782    7.3333    1.4275 H   0  0  0  0  0  0  0  0  0  0  0  0
   -1.7527    5.9143    1.8430 H   0  0  0  0  0  0  0  0  0  0  0  0
   -1.2560    6.0079    4.1210 H   0  0  0  0  0  0  0  0  0  0  0  0
   -2.0361    7.5776    3.6036 H   0  0  0  0  0  0  0  0  0  0  0  0
    0.5973    7.0259    4.9037 H   0  0  0  0  0  0  0  0  0  0  0  0
    0.7810    8.0236    3.3707 H   0  0  0  0  0  0  0  0  0  0  0  0
   -0.3015    8.5540    4.6957 H   0  0  0  0  0  0  0  0  0  0  0  0
    3.1020   -6.7956   -2.0165 H   0  0  0  0  0  0  0  0  0  0  0  0
    1.2825   -7.7762    0.7375 H   0  0  0  0  0  0  0  0  0  0  0  0
  1  2  1  0
  1 19  1  0
  1 20  1  0
  2  3  1  0
  3  4  1  0
  4  5  1  0
  5  6  1  0
  6  7  1  0
  7  8  1  0
  8  9  1  0
  9 10  1  0
 10 11  1  0
 11 12  1  0
 12 13  1  0
 13 14  1  0
 14 15  1  0
 15 16  1  0
 16 17  1  0
 17 18  1  0
  1 21  1  0
  2 22  1  0
  2 23  1  0
  3 24  1  0
  3 25  1  0
  4 26  1  0
  4 27  1  0
  5 28  1  0
  5 29  1  0
  6 30  1  0
  6 31  1  0
  7 32  1  0
  7 33  1  0
  8 34  1  0
  8 35  1  0
  9 36  1  0
  9 37  1  0
 10 38  1  0
 10 39  1  0
 11 40  1  0
 11 41  1  0
 12 42  1  0
 12 43  1  0
 13 44  1  0
 13 45  1  0
 14 46  1  0
 14 47  1  0
 15 48  1  0
 15 49  1  0
 16 50  1  0
 16 51  1  0
 17 52  1  0
 17 53  1  0
 18 54  1  0
 18 55  1  0
 18 56  1  0
 19 57  1  0
 20 58  1  0
M  END
$$$$
FATTY ACID-BINDING PROTEIN
     RDKit          3D

 58 57  0  0  0  0  0  0  0  0999 V2000
    3.2505    5.4549   -0.5865 C   0  0  0  0  0  0  0  0  0  0  0  0
    2.6938    4.5841    0.5206 C   0  0  0  0  0  0  0  0  0  0  0  0
    3.7716    3.6695    1.0427 C   0  0  0  0  0  0  0  0  0  0  0  0
    3.2773    2.7748    2.1503 C   0  0  0  0  0  0  0  0  0  0  0  0
    2.1358    1.8894    1.6855 C   0  0  0  0  0  0  0  0  0  0  0  0
    1.7169    1.0409    2.8556 C   0  0  0  0  0  0  0  0  0  0  0  0
    0.5583    0.0863    2.4954 C   0  0  0  0  0  0  0  0  0  0  0  0
   -0.6471    0.8102    2.0511 C   0  0  0  0  0  0  0  0  0  0  0  0
   -1.8428    0.0065    1.6724 C   0  0  0  0  0  0  0  0  0  0  0  0
   -2.5235   -0.8193    2.6711 C   0  0  0  0  0  0  0  0  0  0  0  0
   -1.9554   -1.9111    3.3953 C   0  0  0  0  0  0  0  0  0  0  0  0
   -1.4239   -3.2091    3.0108 C   0  0  0  0  0  0  0  0  0  0  0  0
   -0.3854   -3.5110    2.0398 C   0  0  0  0  0  0  0  0  0  0  0  0
   -0.5244   -3.7674    0.6195 C   0  0  0  0  0  0  0  0  0  0  0  0
   -1.1561   -3.0244   -0.4479 C   0  0  0  0  0  0  0  0  0  0  0  0
   -2.6481   -2.9587   -0.3044 C   0  0  0  0  0  0  0  0  0  0  0  0
   -3.3581   -2.2129   -1.3885 C   0  0  0  0  0  0  0  0  0  0  0  0
   -2.9991   -0.7915   -1.5782 C   0  0  0  0  0  0  0  0  0  0  0  0
    2.2740    6.3194   -1.0961 O   0  0  0  0  0  0  0  0  0  0  0  0
    4.2768    6.2764   -0.1134 O   0  0  0  0  0  0  0  0  0  0  0  0
    3.6492    4.8802   -1.4275 H   0  0  0  0  0  0  0  0  0  0  0  0
    1.8348    4.0381    0.0786 H   0  0  0  0  0  0  0  0  0  0  0  0
    2.3770    5.2787    1.3206 H   0  0  0  0  0  0  0  0  0  0  0  0
    4.1745    3.0774    0.1958 H   0  0  0  0  0  0  0  0  0  0  0  0
    4.5828    4.2932    1.4355 H   0  0  0  0  0  0  0  0  0  0  0  0
    2.9442    3.3841    3.0000 H   0  0  0  0  0  0  0  0  0  0  0  0
    4.1151    2.1168    2.4377 H   0  0  0  0  0  0  0  0  0  0  0  0
    1.2818    2.5111    1.3445 H   0  0  0  0  0  0  0  0  0  0  0  0
    2.5301    1.2369    0.9021 H   0  0  0  0  0  0  0  0  0  0  0  0
    1.4345    1.6593    3.7220 H   0  0  0  0  0  0  0  0  0  0  0  0
    2.5422    0.3727    3.1755 H   0  0  0  0  0  0  0  0  0  0  0  0
    0.9829   -0.4848    1.6236 H   0  0  0  0  0  0  0  0  0  0  0  0
    0.3765   -0.6093    3.3035 H   0  0  0  0  0  0  0  0  0  0  0  0
   -0.9917    1.5917    2.7713 H   0  0  0  0  0  0  0  0  0  0  0  0
   -0.3570    1.3706    1.1040 H   0  0  0  0  0  0  0  0  0  0  0  0
   -1.5327   -0.6185    0.8387 H   0  0  0  0  0  0  0  0  0  0  0  0
   -2.6455    0.6837    1.2253 H   0  0  0  0  0  0  0  0  0  0  0  0
   -3.5028   -1.1634    2.1852 H   0  0  0  0  0  0  0  0  0  0  0  0
   -2.9964   -0.0397    3.4094 H   0  0  0  0  0  0  0  0  0  0  0  0
   -1.3617   -1.5217    4.3458 H   0  0  0  0  0  0  0  0  0  0  0  0
   -2.9029   -2.2492    4.0900 H   0  0  0  0  0  0  0  0  0  0  0  0
   -2.3524   -3.8709    2.7027 H   0  0  0  0  0  0  0  0  0  0  0  0
   -1.2092   -3.8023    4.0152 H   0  0  0  0  0  0  0  0  0  0  0  0
    0.1724   -4.4559    2.4791 H   0  0  0  0  0  0  0  0  0  0  0  0
    0.5116   -2.7759    2.2036 H   0  0  0  0  0  0  0  0  0  0  0  0
    0.5608   -4.0786    0.2306 H   0  0  0  0  0  0  0  0  0  0  0  0
   -0.9393   -4.8842    0.5870 H   0  0  0  0  0  0  0  0  0  0  0  0
   -1.0093   -3.6199   -1.4275 H   0  0  0  0  0  0  0  0  0  0  0  0
   -0.6731   -2.0595   -0.7280 H   0  0  0  0  0  0  0  0  0  0  0  0
   -2.9739   -4.0571   -0.4911 H   0  0  0  0  0  0  0  0  0  0  0  0
   -3.0331   -2.7788    0.6923 H   0  0  0  0  0  0  0  0  0  0  0  0
   -3.3258   -2.8093   -2.3315 H   0  0  0  0  0  0  0  0  0  0  0  0
   -4.4496   -2.2332   -1.0997 H   0  0  0  0  0  0  0  0  0  0  0  0
   -3.2869   -0.5108   -2.6332 H   0  0  0  0  0  0  0  0  0  0  0  0
   -3.5414   -0.0782   -0.9384 H   0  0  0  0  0  0  0  0  0  0  0  0
   -1.9154   -0.5694   -1.5306 H   0  0  0  0  0  0  0  0  0  0  0  0
    1.5504    5.7685   -1.4720 H   0  0  0  0  0  0  0  0  0  0  0  0
    4.7291    6.6679   -0.9010 H   0  0  0  0  0  0  0  0  0  0  0  0
  1  2  1  0
  1 19  1  0
  1 20  1  0
  2  3  1  0
  3  4  1  0
  4  5  1  0
  5  6  1  0
  6  7  1  0
  7  8  1  0
  8  9  1  0
  9 10  1  0
 10 11  1  0
 11 12  1  0
 12 13  1  0
 13 14  1  0
 14 15  1  0
 15 16  1  0
 16 17  1  0
 17 18  1  0
  1 21  1  0
  2 22  1  0
  2 23  1  0
  3 24  1  0
  3 25  1  0
  4 26  1  0
  4 27  1  0
  5 28  1  0
  5 29  1  0
  6 30  1  0
  6 31  1  0
  7 32  1  0
  7 33  1  0
  8 34  1  0
  8 35  1  0
  9 36  1  0
  9 37  1  0
 10 38  1  0
 10 39  1  0
 11 40  1  0
 11 41  1  0
 12 42  1  0
 12 43  1  0
 13 44  1  0
 13 45  1  0
 14 46  1  0
 14 47  1  0
 15 48  1  0
 15 49  1  0
 16 50  1  0
 16 51  1  0
 17 52  1  0
 17 53  1  0
 18 54  1  0
 18 55  1  0
 18 56  1  0
 19 57  1  0
 20 58  1  0
M  END
$$$$
FATTY ACID-BINDING PROTEIN
     RDKit          3D

 58 57  0  0  0  0  0  0  0  0999 V2000
    3.0643    2.7145   -0.7437 C   0  0  0  0  0  0  0  0  0  0  0  0
    3.0276    2.9840    0.7292 C   0  0  0  0  0  0  0  0  0  0  0  0
    3.5068    1.8588    1.5732 C   0  0  0  0  0  0  0  0  0  0  0  0
    2.6423    0.6253    1.3483 C   0  0  0  0  0  0  0  0  0  0  0  0
    3.1157   -0.5098    2.2059 C   0  0  0  0  0  0  0  0  0  0  0  0
    2.3122   -1.7570    2.0620 C   0  0  0  0  0  0  0  0  0  0  0  0
    0.8568   -1.5536    2.4133 C   0  0  0  0  0  0  0  0  0  0  0  0
    0.1665   -2.8975    2.3002 C   0  0  0  0  0  0  0  0  0  0  0  0
   -1.2764   -2.8404    2.6316 C   0  0  0  0  0  0  0  0  0  0  0  0
   -2.1613   -2.0240    1.7780 C   0  0  0  0  0  0  0  0  0  0  0  0
   -2.2139   -2.5861    0.3669 C   0  0  0  0  0  0  0  0  0  0  0  0
   -3.0940   -1.7861   -0.5338 C   0  0  0  0  0  0  0  0  0  0  0  0
   -2.6612   -0.3928   -0.7789 C   0  0  0  0  0  0  0  0  0  0  0  0
   -1.2970   -0.3196   -1.4835 C   0  0  0  0  0  0  0  0  0  0  0  0
   -1.3775   -0.9955   -2.8235 C   0  0  0  0  0  0  0  0  0  0  0  0
   -0.1647   -1.0086   -3.6804 C   0  0  0  0  0  0  0  0  0  0  0  0
    1.0558   -1.6934   -3.2060 C   0  0  0  0  0  0  0  0  0  0  0  0
    1.7307   -1.1932   -1.9815 C   0  0  0  0  0  0  0  0  0  0  0  0
    4.3741    2.4432   -1.1277 O   0  0  0  0  0  0  0  0  0  0  0  0
    2.6508    3.8191   -1.4913 O   0  0  0  0  0  0  0  0  0  0  0  0
    2.4249    1.8729   -1.0197 H   0  0  0  0  0  0  0  0  0  0  0  0
    1.9867    3.2739    0.9935 H   0  0  0  0  0  0  0  0  0  0  0  0
    3.6405    3.8809    0.9744 H   0  0  0  0  0  0  0  0  0  0  0  0
    4.5550    1.5874    1.3651 H   0  0  0  0  0  0  0  0  0  0  0  0
    3.4471    2.0672    2.6533 H   0  0  0  0  0  0  0  0  0  0  0  0
    2.6777    0.3336    0.2876 H   0  0  0  0  0  0  0  0  0  0  0  0
    1.6076    0.9232    1.6127 H   0  0  0  0  0  0  0  0  0  0  0  0
    3.1121   -0.2361    3.2978 H   0  0  0  0  0  0  0  0  0  0  0  0
    4.1978   -0.7103    1.9673 H   0  0  0  0  0  0  0  0  0  0  0  0
    2.4318   -2.2557    1.0834 H   0  0  0  0  0  0  0  0  0  0  0  0
    2.6863   -2.5086    2.8104 H   0  0  0  0  0  0  0  0  0  0  0  0
    0.3651   -0.7597    1.8187 H   0  0  0  0  0  0  0  0  0  0  0  0
    0.8517   -1.1932    3.4626 H   0  0  0  0  0  0  0  0  0  0  0  0
    0.3457   -3.3745    1.3217 H   0  0  0  0  0  0  0  0  0  0  0  0
    0.6558   -3.5553    3.0478 H   0  0  0  0  0  0  0  0  0  0  0  0
   -1.3796   -2.5581    3.7119 H   0  0  0  0  0  0  0  0  0  0  0  0
   -1.6417   -3.9099    2.6156 H   0  0  0  0  0  0  0  0  0  0  0  0
   -1.9336   -0.9650    1.7159 H   0  0  0  0  0  0  0  0  0  0  0  0
   -3.1994   -2.1039    2.1723 H   0  0  0  0  0  0  0  0  0  0  0  0
   -2.6726   -3.5985    0.4636 H   0  0  0  0  0  0  0  0  0  0  0  0
   -1.1848   -2.7204    0.0430 H   0  0  0  0  0  0  0  0  0  0  0  0
   -4.1007   -1.7579   -0.0457 H   0  0  0  0  0  0  0  0  0  0  0  0
   -3.2542   -2.3339   -1.4789 H   0  0  0  0  0  0  0  0  0  0  0  0
   -2.5583    0.1830    0.1544 H   0  0  0  0  0  0  0  0  0  0  0  0
   -3.3686    0.1389   -1.4354 H   0  0  0  0  0  0  0  0  0  0  0  0
   -1.1326    0.7589   -1.6636 H   0  0  0  0  0  0  0  0  0  0  0  0
   -0.5153   -0.6861   -0.8278 H   0  0  0  0  0  0  0  0  0  0  0  0
   -2.2686   -0.5880   -3.4096 H   0  0  0  0  0  0  0  0  0  0  0  0
   -1.6675   -2.0858   -2.7042 H   0  0  0  0  0  0  0  0  0  0  0  0
    0.1571    0.0568   -3.9474 H   0  0  0  0  0  0  0  0  0  0  0  0
   -0.4407   -1.5114   -4.6615 H   0  0  0  0  0  0  0  0  0  0  0  0
    1.8052   -1.8488   -4.0372 H   0  0  0  0  0  0  0  0  0  0  0  0
    0.7380   -2.7622   -2.9573 H   0  0  0  0  0  0  0  0  0  0  0  0
    2.8636   -1.2679   -2.0963 H   0  0  0  0  0  0  0  0  0  0  0  0
    1.5102   -1.7556   -1.0584 H   0  0  0  0  0  0  0  0  0  0  0  0
    1.4768   -0.1304   -1.8231 H   0  0  0  0  0  0  0  0  0  0  0  0
    4.7959    3.2368   -1.5061 H   0  0  0  0  0  0  0  0  0  0  0  0
    1.6613    3.8040   -1.6668 H   0  0  0  0  0  0  0  0  0  0  0  0
  1  2  1  0
  1 19  1  0
  1 20  1  0
  2  3  1  0
  3  4  1  0
  4  5  1  0
  5  6  1  0
  6  7  1  0
  7  8  1  0
  8  9  1  0
  9 10  1  0
 10 11  1  0
 11 12  1  0
 12 13  1  0
 13 14  1  0
 14 15  1  0
 15 16  1  0
 16 17  1  0
 17 18  1  0
  1 21  1  0
  2 22  1  0
  2 23  1  0
  3 24  1  0
  3 25  1  0
  4 26  1  0
  4 27  1  0
  5 28  1  0
  5 29  1  0
  6 30  1  0
  6 31  1  0
  7 32  1  0
  7 33  1  0
  8 34  1  0
  8 35  1  0
  9 36  1  0
  9 37  1  0
 10 38  1  0
 10 39  1  0
 11 40  1  0
 11 41  1  0
 12 42  1  0
 12 43  1  0
 13 44  1  0
 13 45  1  0
 14 46  1  0
 14 47  1  0
 15 48  1  0
 15 49  1  0
 16 50  1  0
 16 51  1  0
 17 52  1  0
 17 53  1  0
 18 54  1  0
 18 55  1  0
 18 56  1  0
 19 57  1  0
 20 58  1  0
M  END
$$$$
FATTY ACID-BINDING PROTEIN
     RDKit          3D

 58 57  0  0  0  0  0  0  0  0999 V2000
    0.0715   -0.2960    3.2911 C   0  0  0  0  0  0  0  0  0  0  0  0
    1.5506   -0.4968    3.1095 C   0  0  0  0  0  0  0  0  0  0  0  0
    2.0436   -1.8476    3.5218 C   0  0  0  0  0  0  0  0  0  0  0  0
    1.4659   -3.0096    2.7711 C   0  0  0  0  0  0  0  0  0  0  0  0
    1.8168   -2.8932    1.3109 C   0  0  0  0  0  0  0  0  0  0  0  0
    1.3419   -4.0276    0.4854 C   0  0  0  0  0  0  0  0  0  0  0  0
   -0.0562   -4.3699    0.3672 C   0  0  0  0  0  0  0  0  0  0  0  0
   -1.1113   -3.5280   -0.1994 C   0  0  0  0  0  0  0  0  0  0  0  0
   -1.0250   -3.1168   -1.6128 C   0  0  0  0  0  0  0  0  0  0  0  0
    0.0349   -2.2189   -2.0826 C   0  0  0  0  0  0  0  0  0  0  0  0
   -0.0043   -0.8328   -1.4713 C   0  0  0  0  0  0  0  0  0  0  0  0
   -1.3018   -0.1225   -1.8029 C   0  0  0  0  0  0  0  0  0  0  0  0
   -1.3356    1.2508   -1.1826 C   0  0  0  0  0  0  0  0  0  0  0  0
   -0.2117    2.0809   -1.6911 C   0  0  0  0  0  0  0  0  0  0  0  0
   -0.1862    3.4771   -1.1191 C   0  0  0  0  0  0  0  0  0  0  0  0
   -1.4407    4.2504   -1.4335 C   0  0  0  0  0  0  0  0  0  0  0  0
   -1.6519    4.3949   -2.9247 C   0  0  0  0  0  0  0  0  0  0  0  0
   -2.9255    5.1800   -3.1629 C   0  0  0  0  0  0  0  0  0  0  0  0
   -0.2512    1.0110    2.8647 O   0  0  0  0  0  0  0  0  0  0  0  0
   -0.7149   -1.1882    2.6093 O   0  0  0  0  0  0  0  0  0  0  0  0
   -0.1190   -0.3798    4.3872 H   0  0  0  0  0  0  0  0  0  0  0  0
    2.0434    0.2653    3.7845 H   0  0  0  0  0  0  0  0  0  0  0  0
    1.8782   -0.3137    2.0659 H   0  0  0  0  0  0  0  0  0  0  0  0
    1.8846   -1.9389    4.6241 H   0  0  0  0  0  0  0  0  0  0  0  0
    3.1626   -1.8075    3.4176 H   0  0  0  0  0  0  0  0  0  0  0  0
    2.0352   -3.9137    3.1522 H   0  0  0  0  0  0  0  0  0  0  0  0
    0.4019   -3.1813    2.9789 H   0  0  0  0  0  0  0  0  0  0  0  0
    2.9593   -3.0015    1.3127 H   0  0  0  0  0  0  0  0  0  0  0  0
    1.6800   -1.8862    0.8891 H   0  0  0  0  0  0  0  0  0  0  0  0
    1.8538   -4.9520    0.9699 H   0  0  0  0  0  0  0  0  0  0  0  0
    1.8895   -3.9776   -0.4869 H   0  0  0  0  0  0  0  0  0  0  0  0
   -0.0877   -5.3455   -0.2609 H   0  0  0  0  0  0  0  0  0  0  0  0
   -0.3966   -4.8196    1.3809 H   0  0  0  0  0  0  0  0  0  0  0  0
   -2.0676   -4.1640   -0.1391 H   0  0  0  0  0  0  0  0  0  0  0  0
   -1.4011   -2.6648    0.4703 H   0  0  0  0  0  0  0  0  0  0  0  0
   -0.9095   -4.0832   -2.2161 H   0  0  0  0  0  0  0  0  0  0  0  0
   -2.0219   -2.7429   -2.0112 H   0  0  0  0  0  0  0  0  0  0  0  0
   -0.1878   -2.0227   -3.1885 H   0  0  0  0  0  0  0  0  0  0  0  0
    1.0639   -2.5612   -2.0846 H   0  0  0  0  0  0  0  0  0  0  0  0
    0.1531   -0.7934   -0.3947 H   0  0  0  0  0  0  0  0  0  0  0  0
    0.8096   -0.2790   -1.9724 H   0  0  0  0  0  0  0  0  0  0  0  0
   -2.1991   -0.7175   -1.5199 H   0  0  0  0  0  0  0  0  0  0  0  0
   -1.3633    0.0310   -2.9190 H   0  0  0  0  0  0  0  0  0  0  0  0
   -2.2870    1.7134   -1.4996 H   0  0  0  0  0  0  0  0  0  0  0  0
   -1.3154    1.0880   -0.0877 H   0  0  0  0  0  0  0  0  0  0  0  0
    0.7946    1.6495   -1.4104 H   0  0  0  0  0  0  0  0  0  0  0  0
   -0.2756    2.1307   -2.7958 H   0  0  0  0  0  0  0  0  0  0  0  0
    0.6802    4.0193   -1.5473 H   0  0  0  0  0  0  0  0  0  0  0  0
   -0.0493    3.4679   -0.0197 H   0  0  0  0  0  0  0  0  0  0  0  0
   -2.3458    3.8043   -1.0282 H   0  0  0  0  0  0  0  0  0  0  0  0
   -1.3706    5.2791   -1.0278 H   0  0  0  0  0  0  0  0  0  0  0  0
   -1.7880    3.3753   -3.3589 H   0  0  0  0  0  0  0  0  0  0  0  0
   -0.7860    4.8811   -3.3967 H   0  0  0  0  0  0  0  0  0  0  0  0
   -2.8957    5.5583   -4.2031 H   0  0  0  0  0  0  0  0  0  0  0  0
   -2.9923    6.0001   -2.4295 H   0  0  0  0  0  0  0  0  0  0  0  0
   -3.7995    4.5135   -3.0132 H   0  0  0  0  0  0  0  0  0  0  0  0
   -1.2450    1.0598    2.8142 H   0  0  0  0  0  0  0  0  0  0  0  0
   -1.5956   -0.7742    2.3948 H   0  0  0  0  0  0  0  0  0  0  0  0
  1  2  1  0
  1 19  1  0
  1 20  1  0
  2  3  1  0
  3  4  1  0
  4  5  1  0
  5  6  1  0
  6  7  1  0
  7  8  1  0
  8  9  1  0
  9 10  1  0
 10 11  1  0
 11 12  1  0
 12 13  1  0
 13 14  1  0
 14 15  1  0
 15 16  1  0
 16 17  1  0
 17 18  1  0
  1 21  1  0
  2 22  1  0
  2 23  1  0
  3 24  1  0
  3 25  1  0
  4 26  1  0
  4 27  1  0
  5 28  1  0
  5 29  1  0
  6 30  1  0
  6 31  1  0
  7 32  1  0
  7 33  1  0
  8 34  1  0
  8 35  1  0
  9 36  1  0
  9 37  1  0
 10 38  1  0
 10 39  1  0
 11 40  1  0
 11 41  1  0
 12 42  1  0
 12 43  1  0
 13 44  1  0
 13 45  1  0
 14 46  1  0
 14 47  1  0
 15 48  1  0
 15 49  1  0
 16 50  1  0
 16 51  1  0
 17 52  1  0
 17 53  1  0
 18 54  1  0
 18 55  1  0
 18 56  1  0
 19 57  1  0
 20 58  1  0
M  END
$$$$
FATTY ACID-BINDING PROTEIN
     RDKit          3D

 58 57  0  0  0  0  0  0  0  0999 V2000
   -4.1941   -2.9730    1.3046 C   0  0  0  0  0  0  0  0  0  0  0  0
   -3.8955   -1.5181    1.1921 C   0  0  0  0  0  0  0  0  0  0  0  0
   -3.4629   -0.8447    2.4385 C   0  0  0  0  0  0  0  0  0  0  0  0
   -2.2414   -1.2929    3.1041 C   0  0  0  0  0  0  0  0  0  0  0  0
   -0.9327   -1.3346    2.4720 C   0  0  0  0  0  0  0  0  0  0  0  0
   -0.3090   -0.1077    1.9321 C   0  0  0  0  0  0  0  0  0  0  0  0
   -0.9881    0.5379    0.7752 C   0  0  0  0  0  0  0  0  0  0  0  0
   -0.1888    1.7892    0.3442 C   0  0  0  0  0  0  0  0  0  0  0  0
   -0.7833    2.4900   -0.7926 C   0  0  0  0  0  0  0  0  0  0  0  0
   -1.0087    1.8727   -2.0897 C   0  0  0  0  0  0  0  0  0  0  0  0
    0.0509    1.3355   -2.9391 C   0  0  0  0  0  0  0  0  0  0  0  0
    0.8515    0.1856   -2.3804 C   0  0  0  0  0  0  0  0  0  0  0  0
    1.9172   -0.2647   -3.3427 C   0  0  0  0  0  0  0  0  0  0  0  0
    2.9676    0.6960   -3.6769 C   0  0  0  0  0  0  0  0  0  0  0  0
    3.9325    1.1161   -2.6617 C   0  0  0  0  0  0  0  0  0  0  0  0
    3.6031    1.8229   -1.4238 C   0  0  0  0  0  0  0  0  0  0  0  0
    2.9574    3.1631   -1.5404 C   0  0  0  0  0  0  0  0  0  0  0  0
    3.8537    4.1248   -2.3140 C   0  0  0  0  0  0  0  0  0  0  0  0
   -5.2168   -3.2541    2.2085 O   0  0  0  0  0  0  0  0  0  0  0  0
   -3.0546   -3.6937    1.6478 O   0  0  0  0  0  0  0  0  0  0  0  0
   -4.5361   -3.4051    0.3416 H   0  0  0  0  0  0  0  0  0  0  0  0
   -4.8704   -1.0233    0.9016 H   0  0  0  0  0  0  0  0  0  0  0  0
   -3.2300   -1.3019    0.3490 H   0  0  0  0  0  0  0  0  0  0  0  0
   -3.5178    0.2426    2.3347 H   0  0  0  0  0  0  0  0  0  0  0  0
   -4.3019   -1.0270    3.2226 H   0  0  0  0  0  0  0  0  0  0  0  0
   -2.1206   -0.5869    4.0099 H   0  0  0  0  0  0  0  0  0  0  0  0
   -2.4122   -2.2764    3.6891 H   0  0  0  0  0  0  0  0  0  0  0  0
   -0.1971   -1.7176    3.2741 H   0  0  0  0  0  0  0  0  0  0  0  0
   -0.8418   -2.1129    1.6537 H   0  0  0  0  0  0  0  0  0  0  0  0
   -0.2659    0.6621    2.7552 H   0  0  0  0  0  0  0  0  0  0  0  0
    0.7897   -0.2741    1.6914 H   0  0  0  0  0  0  0  0  0  0  0  0
   -0.9117   -0.1272   -0.1334 H   0  0  0  0  0  0  0  0  0  0  0  0
   -2.0308    0.7746    0.8759 H   0  0  0  0  0  0  0  0  0  0  0  0
    0.8572    1.5675    0.3925 H   0  0  0  0  0  0  0  0  0  0  0  0
   -0.3569    2.4756    1.2591 H   0  0  0  0  0  0  0  0  0  0  0  0
   -1.8104    2.8516   -0.4303 H   0  0  0  0  0  0  0  0  0  0  0  0
   -0.2668    3.5026   -0.9380 H   0  0  0  0  0  0  0  0  0  0  0  0
   -1.7845    1.0296   -1.9802 H   0  0  0  0  0  0  0  0  0  0  0  0
   -1.6336    2.6229   -2.6933 H   0  0  0  0  0  0  0  0  0  0  0  0
    0.6615    2.0846   -3.4918 H   0  0  0  0  0  0  0  0  0  0  0  0
   -0.5018    0.8341   -3.8250 H   0  0  0  0  0  0  0  0  0  0  0  0
    1.3052    0.3142   -1.4215 H   0  0  0  0  0  0  0  0  0  0  0  0
    0.1216   -0.7097   -2.3124 H   0  0  0  0  0  0  0  0  0  0  0  0
    2.4251   -1.1387   -2.8138 H   0  0  0  0  0  0  0  0  0  0  0  0
    1.4626   -0.7665   -4.2409 H   0  0  0  0  0  0  0  0  0  0  0  0
    2.5053    1.5960   -4.1999 H   0  0  0  0  0  0  0  0  0  0  0  0
    3.5641    0.2267   -4.5335 H   0  0  0  0  0  0  0  0  0  0  0  0
    4.5893    0.2204   -2.3276 H   0  0  0  0  0  0  0  0  0  0  0  0
    4.7632    1.7427   -3.1710 H   0  0  0  0  0  0  0  0  0  0  0  0
    3.1677    1.1913   -0.5963 H   0  0  0  0  0  0  0  0  0  0  0  0
    4.6515    2.0776   -0.9584 H   0  0  0  0  0  0  0  0  0  0  0  0
    2.9342    3.6082   -0.4963 H   0  0  0  0  0  0  0  0  0  0  0  0
    1.9573    3.1933   -1.9391 H   0  0  0  0  0  0  0  0  0  0  0  0
    3.2369    5.0306   -2.5248 H   0  0  0  0  0  0  0  0  0  0  0  0
    4.7096    4.3953   -1.6756 H   0  0  0  0  0  0  0  0  0  0  0  0
    4.2169    3.7065   -3.2535 H   0  0  0  0  0  0  0  0  0  0  0  0
   -5.1258   -4.2051    2.4598 H   0  0  0  0  0  0  0  0  0  0  0  0
   -2.5994   -4.0837    0.8657 H   0  0  0  0  0  0  0  0  0  0  0  0
  1  2  1  0
  1 19  1  0
  1 20  1  0
  2  3  1  0
  3  4  1  0
  4  5  1  0
  5  6  1  0
  6  7  1  0
  7  8  1  0
  8  9  1  0
  9 10  1  0
 10 11  1  0
 11 12  1  0
 12 13  1  0
 13 14  1  0
 14 15  1  0
 15 16  1  0
 16 17  1  0
 17 18  1  0
  1 21  1  0
  2 22  1  0
  2 23  1  0
  3 24  1  0
  3 25  1  0
  4 26  1  0
  4 27  1  0
  5 28  1  0
  5 29  1  0
  6 30  1  0
  6 31  1  0
  7 32  1  0
  7 33  1  0
  8 34  1  0
  8 35  1  0
  9 36  1  0
  9 37  1  0
 10 38  1  0
 10 39  1  0
 11 40  1  0
 11 41  1  0
 12 42  1  0
 12 43  1  0
 13 44  1  0
 13 45  1  0
 14 46  1  0
 14 47  1  0
 15 48  1  0
 15 49  1  0
 16 50  1  0
 16 51  1  0
 17 52  1  0
 17 53  1  0
 18 54  1  0
 18 55  1  0
 18 56  1  0
 19 57  1  0
 20 58  1  0
M  END
$$$$
FATTY ACID-BINDING PROTEIN
     RDKit          3D

 58 57  0  0  0  0  0  0  0  0999 V2000
   -0.7503   -1.4765   -7.5084 C   0  0  0  0  0  0  0  0  0  0  0  0
   -1.3412   -2.4067   -6.4734 C   0  0  0  0  0  0  0  0  0  0  0  0
   -1.6508   -1.6892   -5.1758 C   0  0  0  0  0  0  0  0  0  0  0  0
   -2.2302   -2.7380   -4.2470 C   0  0  0  0  0  0  0  0  0  0  0  0
   -2.6000   -2.1799   -2.8895 C   0  0  0  0  0  0  0  0  0  0  0  0
   -1.4116   -1.5881   -2.1641 C   0  0  0  0  0  0  0  0  0  0  0  0
   -1.9164   -1.0735   -0.8334 C   0  0  0  0  0  0  0  0  0  0  0  0
   -0.7946   -0.4555   -0.0209 C   0  0  0  0  0  0  0  0  0  0  0  0
   -0.1591    0.7025   -0.7353 C   0  0  0  0  0  0  0  0  0  0  0  0
    0.9654    1.3081    0.0780 C   0  0  0  0  0  0  0  0  0  0  0  0
    0.5201    1.8337    1.4180 C   0  0  0  0  0  0  0  0  0  0  0  0
    1.6433    2.4527    2.2224 C   0  0  0  0  0  0  0  0  0  0  0  0
    2.7636    1.5016    2.5327 C   0  0  0  0  0  0  0  0  0  0  0  0
    2.3441    0.3131    3.3118 C   0  0  0  0  0  0  0  0  0  0  0  0
    1.6906    0.4691    4.6137 C   0  0  0  0  0  0  0  0  0  0  0  0
    2.3491    1.1065    5.7597 C   0  0  0  0  0  0  0  0  0  0  0  0
    2.7761    2.5230    5.6905 C   0  0  0  0  0  0  0  0  0  0  0  0
    3.3893    2.9508    7.0586 C   0  0  0  0  0  0  0  0  0  0  0  0
   -1.5818   -0.4293   -7.8408 O   0  0  0  0  0  0  0  0  0  0  0  0
    0.4826   -0.9930   -7.1124 O   0  0  0  0  0  0  0  0  0  0  0  0
   -0.5863   -2.1006   -8.4174 H   0  0  0  0  0  0  0  0  0  0  0  0
   -0.5993   -3.2143   -6.3056 H   0  0  0  0  0  0  0  0  0  0  0  0
   -2.2653   -2.8536   -6.8381 H   0  0  0  0  0  0  0  0  0  0  0  0
   -0.7378   -1.2264   -4.7541 H   0  0  0  0  0  0  0  0  0  0  0  0
   -2.3744   -0.8936   -5.3985 H   0  0  0  0  0  0  0  0  0  0  0  0
   -1.4977   -3.5607   -4.1268 H   0  0  0  0  0  0  0  0  0  0  0  0
   -3.1407   -3.1714   -4.7056 H   0  0  0  0  0  0  0  0  0  0  0  0
   -3.4132   -1.4677   -3.0262 H   0  0  0  0  0  0  0  0  0  0  0  0
   -3.0237   -3.0291   -2.3106 H   0  0  0  0  0  0  0  0  0  0  0  0
   -1.0193   -0.7482   -2.7979 H   0  0  0  0  0  0  0  0  0  0  0  0
   -0.5999   -2.3017   -2.0309 H   0  0  0  0  0  0  0  0  0  0  0  0
   -2.3410   -1.9238   -0.2831 H   0  0  0  0  0  0  0  0  0  0  0  0
   -2.6728   -0.2802   -0.9945 H   0  0  0  0  0  0  0  0  0  0  0  0
   -0.0690   -1.1913    0.3447 H   0  0  0  0  0  0  0  0  0  0  0  0
   -1.3098   -0.0339    0.8919 H   0  0  0  0  0  0  0  0  0  0  0  0
    0.2915    0.4141   -1.7053 H   0  0  0  0  0  0  0  0  0  0  0  0
   -0.8806    1.5110   -0.9372 H   0  0  0  0  0  0  0  0  0  0  0  0
    1.7133    0.4727    0.2038 H   0  0  0  0  0  0  0  0  0  0  0  0
    1.4639    2.1342   -0.4620 H   0  0  0  0  0  0  0  0  0  0  0  0
   -0.2649    2.5996    1.2545 H   0  0  0  0  0  0  0  0  0  0  0  0
    0.0315    1.0033    1.9810 H   0  0  0  0  0  0  0  0  0  0  0  0
    2.0830    3.2421    1.5435 H   0  0  0  0  0  0  0  0  0  0  0  0
    1.2665    3.0224    3.0887 H   0  0  0  0  0  0  0  0  0  0  0  0
    3.1073    1.1593    1.4780 H   0  0  0  0  0  0  0  0  0  0  0  0
    3.6386    2.0482    2.8807 H   0  0  0  0  0  0  0  0  0  0  0  0
    3.3007   -0.2973    3.4649 H   0  0  0  0  0  0  0  0  0  0  0  0
    1.7408   -0.4105    2.6622 H   0  0  0  0  0  0  0  0  0  0  0  0
    0.6097    0.8690    4.4841 H   0  0  0  0  0  0  0  0  0  0  0  0
    1.4403   -0.5993    4.9685 H   0  0  0  0  0  0  0  0  0  0  0  0
    1.6693    1.0183    6.6756 H   0  0  0  0  0  0  0  0  0  0  0  0
    3.2127    0.4477    6.0579 H   0  0  0  0  0  0  0  0  0  0  0  0
    1.9465    3.2355    5.5434 H   0  0  0  0  0  0  0  0  0  0  0  0
    3.6112    2.6360    4.9880 H   0  0  0  0  0  0  0  0  0  0  0  0
    2.5590    3.2284    7.7327 H   0  0  0  0  0  0  0  0  0  0  0  0
    4.0512    2.1718    7.4537 H   0  0  0  0  0  0  0  0  0  0  0  0
    3.9484    3.8801    6.8460 H   0  0  0  0  0  0  0  0  0  0  0  0
   -2.3880   -0.7091   -8.3369 H   0  0  0  0  0  0  0  0  0  0  0  0
    1.2362   -1.5931   -7.3582 H   0  0  0  0  0  0  0  0  0  0  0  0
  1  2  1  0
  1 19  1  0
  1 20  1  0
  2  3  1  0
  3  4  1  0
  4  5  1  0
  5  6  1  0
  6  7  1  0
  7  8  1  0
  8  9  1  0
  9 10  1  0
 10 11  1  0
 11 12  1  0
 12 13  1  0
 13 14  1  0
 14 15  1  0
 15 16  1  0
 16 17  1  0
 17 18  1  0
  1 21  1  0
  2 22  1  0
  2 23  1  0
  3 24  1  0
  3 25  1  0
  4 26  1  0
  4 27  1  0
  5 28  1  0
  5 29  1  0
  6 30  1  0
  6 31  1  0
  7 32  1  0
  7 33  1  0
  8 34  1  0
  8 35  1  0
  9 36  1  0
  9 37  1  0
 10 38  1  0
 10 39  1  0
 11 40  1  0
 11 41  1  0
 12 42  1  0
 12 43  1  0
 13 44  1  0
 13 45  1  0
 14 46  1  0
 14 47  1  0
 15 48  1  0
 15 49  1  0
 16 50  1  0
 16 51  1  0
 17 52  1  0
 17 53  1  0
 18 54  1  0
 18 55  1  0
 18 56  1  0
 19 57  1  0
 20 58  1  0
M  END
$$$$
FATTY ACID-BINDING PROTEIN
     RDKit          3D

 58 57  0  0  0  0  0  0  0  0999 V2000
   -5.1533    2.4134   -0.9577 C   0  0  0  0  0  0  0  0  0  0  0  0
   -5.2416    1.1743   -1.7709 C   0  0  0  0  0  0  0  0  0  0  0  0
   -3.9264    0.6770   -2.3282 C   0  0  0  0  0  0  0  0  0  0  0  0
   -3.2256    1.6236   -3.2289 C   0  0  0  0  0  0  0  0  0  0  0  0
   -1.9537    1.0096   -3.7407 C   0  0  0  0  0  0  0  0  0  0  0  0
   -0.9935    0.6569   -2.6304 C   0  0  0  0  0  0  0  0  0  0  0  0
    0.2613    0.0637   -3.2480 C   0  0  0  0  0  0  0  0  0  0  0  0
    1.2904   -0.3289   -2.1790 C   0  0  0  0  0  0  0  0  0  0  0  0
    1.7221    0.8240   -1.3686 C   0  0  0  0  0  0  0  0  0  0  0  0
    2.7097    0.6793   -0.2965 C   0  0  0  0  0  0  0  0  0  0  0  0
    2.4522   -0.1016    0.9308 C   0  0  0  0  0  0  0  0  0  0  0  0
    2.1247   -1.5254    0.7845 C   0  0  0  0  0  0  0  0  0  0  0  0
    1.9860   -2.2437    2.1344 C   0  0  0  0  0  0  0  0  0  0  0  0
    3.2204   -2.2029    2.9609 C   0  0  0  0  0  0  0  0  0  0  0  0
    2.9949   -2.9362    4.2658 C   0  0  0  0  0  0  0  0  0  0  0  0
    1.8955   -2.3663    5.1049 C   0  0  0  0  0  0  0  0  0  0  0  0
    1.7102   -3.1335    6.4035 C   0  0  0  0  0  0  0  0  0  0  0  0
    0.5760   -2.5097    7.2211 C   0  0  0  0  0  0  0  0  0  0  0  0
   -6.4755    2.7017   -0.5304 O   0  0  0  0  0  0  0  0  0  0  0  0
   -4.8141    3.4927   -1.7787 O   0  0  0  0  0  0  0  0  0  0  0  0
   -4.5486    2.3405   -0.0527 H   0  0  0  0  0  0  0  0  0  0  0  0
   -5.9074    1.4002   -2.6405 H   0  0  0  0  0  0  0  0  0  0  0  0
   -5.7372    0.3769   -1.2137 H   0  0  0  0  0  0  0  0  0  0  0  0
   -3.2569    0.4942   -1.4352 H   0  0  0  0  0  0  0  0  0  0  0  0
   -4.0530   -0.2874   -2.8543 H   0  0  0  0  0  0  0  0  0  0  0  0
   -3.8368    1.8607   -4.1392 H   0  0  0  0  0  0  0  0  0  0  0  0
   -2.9283    2.5770   -2.7402 H   0  0  0  0  0  0  0  0  0  0  0  0
   -2.1548    0.0966   -4.3564 H   0  0  0  0  0  0  0  0  0  0  0  0
   -1.4882    1.7459   -4.4365 H   0  0  0  0  0  0  0  0  0  0  0  0
   -0.7805    1.5817   -2.0956 H   0  0  0  0  0  0  0  0  0  0  0  0
   -1.4309   -0.0685   -1.9223 H   0  0  0  0  0  0  0  0  0  0  0  0
   -0.0336   -0.8777   -3.7454 H   0  0  0  0  0  0  0  0  0  0  0  0
    0.7411    0.8046   -3.9051 H   0  0  0  0  0  0  0  0  0  0  0  0
    0.9617   -1.2360   -1.6815 H   0  0  0  0  0  0  0  0  0  0  0  0
    2.1756   -0.6736   -2.8150 H   0  0  0  0  0  0  0  0  0  0  0  0
    2.0577    1.6380   -2.1043 H   0  0  0  0  0  0  0  0  0  0  0  0
    0.8231    1.3577   -0.8925 H   0  0  0  0  0  0  0  0  0  0  0  0
    2.9777    1.7498    0.0427 H   0  0  0  0  0  0  0  0  0  0  0  0
    3.7344    0.3641   -0.7114 H   0  0  0  0  0  0  0  0  0  0  0  0
    1.7131    0.4527    1.5834 H   0  0  0  0  0  0  0  0  0  0  0  0
    3.4098   -0.0468    1.5636 H   0  0  0  0  0  0  0  0  0  0  0  0
    2.7303   -2.0656    0.0806 H   0  0  0  0  0  0  0  0  0  0  0  0
    1.0432   -1.5720    0.4185 H   0  0  0  0  0  0  0  0  0  0  0  0
    1.1386   -1.8110    2.6748 H   0  0  0  0  0  0  0  0  0  0  0  0
    1.7410   -3.2969    1.8942 H   0  0  0  0  0  0  0  0  0  0  0  0
    4.1039   -2.6463    2.4900 H   0  0  0  0  0  0  0  0  0  0  0  0
    3.4834   -1.1492    3.2712 H   0  0  0  0  0  0  0  0  0  0  0  0
    2.6639   -3.9698    3.9605 H   0  0  0  0  0  0  0  0  0  0  0  0
    3.9141   -3.0322    4.8590 H   0  0  0  0  0  0  0  0  0  0  0  0
    2.0390   -1.3066    5.3674 H   0  0  0  0  0  0  0  0  0  0  0  0
    0.9008   -2.4422    4.5891 H   0  0  0  0  0  0  0  0  0  0  0  0
    1.4117   -4.1899    6.2280 H   0  0  0  0  0  0  0  0  0  0  0  0
    2.6174   -3.0523    7.0173 H   0  0  0  0  0  0  0  0  0  0  0  0
   -0.3936   -2.8519    6.7669 H   0  0  0  0  0  0  0  0  0  0  0  0
    0.6404   -2.8741    8.2451 H   0  0  0  0  0  0  0  0  0  0  0  0
    0.5996   -1.4127    7.1156 H   0  0  0  0  0  0  0  0  0  0  0  0
   -6.6085    2.3804    0.4015 H   0  0  0  0  0  0  0  0  0  0  0  0
   -4.3487    4.1532   -1.2094 H   0  0  0  0  0  0  0  0  0  0  0  0
  1  2  1  0
  1 19  1  0
  1 20  1  0
  2  3  1  0
  3  4  1  0
  4  5  1  0
  5  6  1  0
  6  7  1  0
  7  8  1  0
  8  9  1  0
  9 10  1  0
 10 11  1  0
 11 12  1  0
 12 13  1  0
 13 14  1  0
 14 15  1  0
 15 16  1  0
 16 17  1  0
 17 18  1  0
  1 21  1  0
  2 22  1  0
  2 23  1  0
  3 24  1  0
  3 25  1  0
  4 26  1  0
  4 27  1  0
  5 28  1  0
  5 29  1  0
  6 30  1  0
  6 31  1  0
  7 32  1  0
  7 33  1  0
  8 34  1  0
  8 35  1  0
  9 36  1  0
  9 37  1  0
 10 38  1  0
 10 39  1  0
 11 40  1  0
 11 41  1  0
 12 42  1  0
 12 43  1  0
 13 44  1  0
 13 45  1  0
 14 46  1  0
 14 47  1  0
 15 48  1  0
 15 49  1  0
 16 50  1  0
 16 51  1  0
 17 52  1  0
 17 53  1  0
 18 54  1  0
 18 55  1  0
 18 56  1  0
 19 57  1  0
 20 58  1  0
M  END
$$$$
FATTY ACID-BINDING PROTEIN
     RDKit          3D

 58 57  0  0  0  0  0  0  0  0999 V2000
   -2.3907    2.0643   -2.5888 C   0  0  0  0  0  0  0  0  0  0  0  0
   -1.1225    1.5707   -3.2317 C   0  0  0  0  0  0  0  0  0  0  0  0
   -0.9018    0.1017   -3.0556 C   0  0  0  0  0  0  0  0  0  0  0  0
   -0.8101   -0.2927   -1.5886 C   0  0  0  0  0  0  0  0  0  0  0  0
   -0.5896   -1.7835   -1.5731 C   0  0  0  0  0  0  0  0  0  0  0  0
   -0.4748   -2.4021   -0.2259 C   0  0  0  0  0  0  0  0  0  0  0  0
   -1.7181   -2.1834    0.6040 C   0  0  0  0  0  0  0  0  0  0  0  0
   -1.6209   -2.8074    1.9457 C   0  0  0  0  0  0  0  0  0  0  0  0
   -0.6144   -2.3336    2.9047 C   0  0  0  0  0  0  0  0  0  0  0  0
   -0.6680   -0.9887    3.4698 C   0  0  0  0  0  0  0  0  0  0  0  0
   -0.5450    0.2459    2.7077 C   0  0  0  0  0  0  0  0  0  0  0  0
    0.7779    0.4770    1.9816 C   0  0  0  0  0  0  0  0  0  0  0  0
    1.9348    0.5057    2.8771 C   0  0  0  0  0  0  0  0  0  0  0  0
    3.3196    0.6410    2.4857 C   0  0  0  0  0  0  0  0  0  0  0  0
    3.9604    1.7108    1.7610 C   0  0  0  0  0  0  0  0  0  0  0  0
    3.7891    2.1017    0.3748 C   0  0  0  0  0  0  0  0  0  0  0  0
    2.4968    2.5186   -0.2050 C   0  0  0  0  0  0  0  0  0  0  0  0
    2.6603    2.9653   -1.6731 C   0  0  0  0  0  0  0  0  0  0  0  0
   -3.4678    1.3943   -3.1642 O   0  0  0  0  0  0  0  0  0  0  0  0
   -2.4924    3.4269   -2.8898 O   0  0  0  0  0  0  0  0  0  0  0  0
   -2.4026    1.9685   -1.5010 H   0  0  0  0  0  0  0  0  0  0  0  0
   -0.2460    2.1468   -2.9281 H   0  0  0  0  0  0  0  0  0  0  0  0
   -1.2393    1.7431   -4.3263 H   0  0  0  0  0  0  0  0  0  0  0  0
    0.0855   -0.1416   -3.4995 H   0  0  0  0  0  0  0  0  0  0  0  0
   -1.6534   -0.5048   -3.5873 H   0  0  0  0  0  0  0  0  0  0  0  0
   -1.7270   -0.0644   -1.0489 H   0  0  0  0  0  0  0  0  0  0  0  0
    0.0301    0.2608   -1.1388 H   0  0  0  0  0  0  0  0  0  0  0  0
   -1.3025   -2.3078   -2.2444 H   0  0  0  0  0  0  0  0  0  0  0  0
    0.4105   -1.9346   -2.0802 H   0  0  0  0  0  0  0  0  0  0  0  0
   -0.4636   -3.5231   -0.4150 H   0  0  0  0  0  0  0  0  0  0  0  0
    0.4660   -2.1411    0.2359 H   0  0  0  0  0  0  0  0  0  0  0  0
   -2.5159   -2.7918    0.0516 H   0  0  0  0  0  0  0  0  0  0  0  0
   -2.0954   -1.1599    0.6096 H   0  0  0  0  0  0  0  0  0  0  0  0
   -2.6438   -2.9067    2.4189 H   0  0  0  0  0  0  0  0  0  0  0  0
   -1.3767   -3.9095    1.7399 H   0  0  0  0  0  0  0  0  0  0  0  0
    0.3892   -2.5403    2.4315 H   0  0  0  0  0  0  0  0  0  0  0  0
   -0.5841   -3.0504    3.7980 H   0  0  0  0  0  0  0  0  0  0  0  0
   -1.6636   -0.8905    4.0442 H   0  0  0  0  0  0  0  0  0  0  0  0
    0.0759   -0.9490    4.3379 H   0  0  0  0  0  0  0  0  0  0  0  0
   -1.3561    0.5098    2.0293 H   0  0  0  0  0  0  0  0  0  0  0  0
   -0.5727    1.0959    3.4802 H   0  0  0  0  0  0  0  0  0  0  0  0
    0.8057   -0.0636    1.0668 H   0  0  0  0  0  0  0  0  0  0  0  0
    0.6289    1.5784    1.6588 H   0  0  0  0  0  0  0  0  0  0  0  0
    1.7676    1.2767    3.7273 H   0  0  0  0  0  0  0  0  0  0  0  0
    1.8579   -0.4599    3.5115 H   0  0  0  0  0  0  0  0  0  0  0  0
    3.9092    0.5693    3.4958 H   0  0  0  0  0  0  0  0  0  0  0  0
    3.7313   -0.3360    2.0201 H   0  0  0  0  0  0  0  0  0  0  0  0
    3.9576    2.6987    2.3733 H   0  0  0  0  0  0  0  0  0  0  0  0
    5.1080    1.4915    1.8584 H   0  0  0  0  0  0  0  0  0  0  0  0
    4.3178    1.3601   -0.3470 H   0  0  0  0  0  0  0  0  0  0  0  0
    4.4848    3.0110    0.1935 H   0  0  0  0  0  0  0  0  0  0  0  0
    1.9379    3.3016    0.3092 H   0  0  0  0  0  0  0  0  0  0  0  0
    1.8161    1.6190   -0.2976 H   0  0  0  0  0  0  0  0  0  0  0  0
    3.3064    3.8704   -1.6970 H   0  0  0  0  0  0  0  0  0  0  0  0
    1.6540    3.2909   -2.0078 H   0  0  0  0  0  0  0  0  0  0  0  0
    3.0741    2.1649   -2.3000 H   0  0  0  0  0  0  0  0  0  0  0  0
   -4.0388    1.0194   -2.4491 H   0  0  0  0  0  0  0  0  0  0  0  0
   -1.9890    3.9882   -2.2459 H   0  0  0  0  0  0  0  0  0  0  0  0
  1  2  1  0
  1 19  1  0
  1 20  1  0
  2  3  1  0
  3  4  1  0
  4  5  1  0
  5  6  1  0
  6  7  1  0
  7  8  1  0
  8  9  1  0
  9 10  1  0
 10 11  1  0
 11 12  1  0
 12 13  1  0
 13 14  1  0
 14 15  1  0
 15 16  1  0
 16 17  1  0
 17 18  1  0
  1 21  1  0
  2 22  1  0
  2 23  1  0
  3 24  1  0
  3 25  1  0
  4 26  1  0
  4 27  1  0
  5 28  1  0
  5 29  1  0
  6 30  1  0
  6 31  1  0
  7 32  1  0
  7 33  1  0
  8 34  1  0
  8 35  1  0
  9 36  1  0
  9 37  1  0
 10 38  1  0
 10 39  1  0
 11 40  1  0
 11 41  1  0
 12 42  1  0
 12 43  1  0
 13 44  1  0
 13 45  1  0
 14 46  1  0
 14 47  1  0
 15 48  1  0
 15 49  1  0
 16 50  1  0
 16 51  1  0
 17 52  1  0
 17 53  1  0
 18 54  1  0
 18 55  1  0
 18 56  1  0
 19 57  1  0
 20 58  1  0
M  END
$$$$
FATTY ACID-BINDING PROTEIN
     RDKit          3D

 58 57  0  0  0  0  0  0  0  0999 V2000
    0.8728   -3.4819   -2.3008 C   0  0  0  0  0  0  0  0  0  0  0  0
   -0.1870   -4.4184   -1.9008 C   0  0  0  0  0  0  0  0  0  0  0  0
   -1.5753   -3.9052   -1.8372 C   0  0  0  0  0  0  0  0  0  0  0  0
   -1.7964   -2.7660   -0.8717 C   0  0  0  0  0  0  0  0  0  0  0  0
   -1.4590   -3.1470    0.5412 C   0  0  0  0  0  0  0  0  0  0  0  0
   -1.6792   -2.0411    1.5303 C   0  0  0  0  0  0  0  0  0  0  0  0
   -0.8092   -0.8844    1.2086 C   0  0  0  0  0  0  0  0  0  0  0  0
   -0.9508    0.2740    2.1674 C   0  0  0  0  0  0  0  0  0  0  0  0
   -2.2480    0.9009    2.3080 C   0  0  0  0  0  0  0  0  0  0  0  0
   -2.9767    1.6034    1.2481 C   0  0  0  0  0  0  0  0  0  0  0  0
   -2.4314    2.8125    0.6300 C   0  0  0  0  0  0  0  0  0  0  0  0
   -1.1979    2.8166   -0.1680 C   0  0  0  0  0  0  0  0  0  0  0  0
   -1.2166    2.0369   -1.4284 C   0  0  0  0  0  0  0  0  0  0  0  0
    0.0994    2.1301   -2.1386 C   0  0  0  0  0  0  0  0  0  0  0  0
    1.2083    1.5547   -1.3092 C   0  0  0  0  0  0  0  0  0  0  0  0
    2.5429    1.6171   -2.0517 C   0  0  0  0  0  0  0  0  0  0  0  0
    2.9182    3.0246   -2.3905 C   0  0  0  0  0  0  0  0  0  0  0  0
    3.0656    3.9130   -1.1995 C   0  0  0  0  0  0  0  0  0  0  0  0
    2.1333   -4.1242   -2.3119 O   0  0  0  0  0  0  0  0  0  0  0  0
    0.7095   -3.0652   -3.6402 O   0  0  0  0  0  0  0  0  0  0  0  0
    0.9977   -2.5804   -1.7096 H   0  0  0  0  0  0  0  0  0  0  0  0
   -0.1786   -5.2768   -2.6050 H   0  0  0  0  0  0  0  0  0  0  0  0
    0.0804   -4.8745   -0.9201 H   0  0  0  0  0  0  0  0  0  0  0  0
   -1.9513   -3.5653   -2.8242 H   0  0  0  0  0  0  0  0  0  0  0  0
   -2.2526   -4.7233   -1.5162 H   0  0  0  0  0  0  0  0  0  0  0  0
   -1.4331   -1.8145   -1.2323 H   0  0  0  0  0  0  0  0  0  0  0  0
   -2.9226   -2.6447   -0.8593 H   0  0  0  0  0  0  0  0  0  0  0  0
   -0.4118   -3.5287    0.6338 H   0  0  0  0  0  0  0  0  0  0  0  0
   -2.1247   -4.0347    0.7870 H   0  0  0  0  0  0  0  0  0  0  0  0
   -2.7657   -1.8128    1.4980 H   0  0  0  0  0  0  0  0  0  0  0  0
   -1.4786   -2.4511    2.5599 H   0  0  0  0  0  0  0  0  0  0  0  0
   -0.9467   -0.5902    0.1690 H   0  0  0  0  0  0  0  0  0  0  0  0
    0.2521   -1.2821    1.2457 H   0  0  0  0  0  0  0  0  0  0  0  0
   -0.7063   -0.2018    3.1829 H   0  0  0  0  0  0  0  0  0  0  0  0
   -0.0604    0.9018    2.0038 H   0  0  0  0  0  0  0  0  0  0  0  0
   -2.9825    0.1197    2.7272 H   0  0  0  0  0  0  0  0  0  0  0  0
   -2.2221    1.6215    3.2070 H   0  0  0  0  0  0  0  0  0  0  0  0
   -3.3965    0.8664    0.4779 H   0  0  0  0  0  0  0  0  0  0  0  0
   -3.9705    1.9183    1.7218 H   0  0  0  0  0  0  0  0  0  0  0  0
   -3.2259    3.3400    0.0019 H   0  0  0  0  0  0  0  0  0  0  0  0
   -2.2868    3.5968    1.4472 H   0  0  0  0  0  0  0  0  0  0  0  0
   -1.0046    3.8927   -0.5025 H   0  0  0  0  0  0  0  0  0  0  0  0
   -0.2792    2.5911    0.4011 H   0  0  0  0  0  0  0  0  0  0  0  0
   -1.4646    0.9762   -1.3701 H   0  0  0  0  0  0  0  0  0  0  0  0
   -1.9538    2.5533   -2.1471 H   0  0  0  0  0  0  0  0  0  0  0  0
    0.0289    1.5828   -3.1315 H   0  0  0  0  0  0  0  0  0  0  0  0
    0.3586    3.1853   -2.4061 H   0  0  0  0  0  0  0  0  0  0  0  0
    0.9484    0.4981   -1.1042 H   0  0  0  0  0  0  0  0  0  0  0  0
    1.3541    2.0630   -0.3434 H   0  0  0  0  0  0  0  0  0  0  0  0
    3.3012    1.2288   -1.3410 H   0  0  0  0  0  0  0  0  0  0  0  0
    2.4921    1.0004   -2.9487 H   0  0  0  0  0  0  0  0  0  0  0  0
    3.9096    2.9664   -2.9104 H   0  0  0  0  0  0  0  0  0  0  0  0
    2.2397    3.4938   -3.1306 H   0  0  0  0  0  0  0  0  0  0  0  0
    3.1065    3.3495   -0.2459 H   0  0  0  0  0  0  0  0  0  0  0  0
    3.9430    4.5765   -1.3335 H   0  0  0  0  0  0  0  0  0  0  0  0
    2.1739    4.5994   -1.1666 H   0  0  0  0  0  0  0  0  0  0  0  0
    2.4412   -4.1813   -1.3909 H   0  0  0  0  0  0  0  0  0  0  0  0
    0.5324   -2.1019   -3.7173 H   0  0  0  0  0  0  0  0  0  0  0  0
  1  2  1  0
  1 19  1  0
  1 20  1  0
  2  3  1  0
  3  4  1  0
  4  5  1  0
  5  6  1  0
  6  7  1  0
  7  8  1  0
  8  9  1  0
  9 10  1  0
 10 11  1  0
 11 12  1  0
 12 13  1  0
 13 14  1  0
 14 15  1  0
 15 16  1  0
 16 17  1  0
 17 18  1  0
  1 21  1  0
  2 22  1  0
  2 23  1  0
  3 24  1  0
  3 25  1  0
  4 26  1  0
  4 27  1  0
  5 28  1  0
  5 29  1  0
  6 30  1  0
  6 31  1  0
  7 32  1  0
  7 33  1  0
  8 34  1  0
  8 35  1  0
  9 36  1  0
  9 37  1  0
 10 38  1  0
 10 39  1  0
 11 40  1  0
 11 41  1  0
 12 42  1  0
 12 43  1  0
 13 44  1  0
 13 45  1  0
 14 46  1  0
 14 47  1  0
 15 48  1  0
 15 49  1  0
 16 50  1  0
 16 51  1  0
 17 52  1  0
 17 53  1  0
 18 54  1  0
 18 55  1  0
 18 56  1  0
 19 57  1  0
 20 58  1  0
M  END
$$$$
FATTY ACID-BINDING PROTEIN
     RDKit          3D

 58 57  0  0  0  0  0  0  0  0999 V2000
    3.3124   -2.1924    0.2760 C   0  0  0  0  0  0  0  0  0  0  0  0
    3.4761   -0.9278    1.1191 C   0  0  0  0  0  0  0  0  0  0  0  0
    4.0097    0.2059    0.2865 C   0  0  0  0  0  0  0  0  0  0  0  0
    3.2174    0.6544   -0.8502 C   0  0  0  0  0  0  0  0  0  0  0  0
    1.8482    1.2476   -0.6328 C   0  0  0  0  0  0  0  0  0  0  0  0
    1.8508    2.4415    0.2202 C   0  0  0  0  0  0  0  0  0  0  0  0
    0.6280    3.2064    0.3665 C   0  0  0  0  0  0  0  0  0  0  0  0
   -0.6818    2.8233    0.8985 C   0  0  0  0  0  0  0  0  0  0  0  0
   -0.6843    2.2700    2.2748 C   0  0  0  0  0  0  0  0  0  0  0  0
   -0.2887    0.8323    2.4388 C   0  0  0  0  0  0  0  0  0  0  0  0
   -1.4643   -0.0399    1.9663 C   0  0  0  0  0  0  0  0  0  0  0  0
   -1.2090   -1.4880    2.0284 C   0  0  0  0  0  0  0  0  0  0  0  0
   -0.3896   -2.1522    0.9936 C   0  0  0  0  0  0  0  0  0  0  0  0
   -1.0534   -2.4246   -0.2903 C   0  0  0  0  0  0  0  0  0  0  0  0
   -1.7060   -1.5032   -1.1756 C   0  0  0  0  0  0  0  0  0  0  0  0
   -0.9880   -0.3864   -1.8444 C   0  0  0  0  0  0  0  0  0  0  0  0
    0.1636   -0.8582   -2.7078 C   0  0  0  0  0  0  0  0  0  0  0  0
   -0.3403   -1.8002   -3.8028 C   0  0  0  0  0  0  0  0  0  0  0  0
    4.5457   -2.5797   -0.2582 O   0  0  0  0  0  0  0  0  0  0  0  0
    2.8740   -3.2314    1.0927 O   0  0  0  0  0  0  0  0  0  0  0  0
    2.6130   -2.0111   -0.5600 H   0  0  0  0  0  0  0  0  0  0  0  0
    2.5799   -0.7213    1.6929 H   0  0  0  0  0  0  0  0  0  0  0  0
    4.2774   -1.1332    1.8945 H   0  0  0  0  0  0  0  0  0  0  0  0
    4.3746    1.0210    0.9603 H   0  0  0  0  0  0  0  0  0  0  0  0
    4.9881   -0.1982   -0.1372 H   0  0  0  0  0  0  0  0  0  0  0  0
    3.8009    1.3768   -1.4861 H   0  0  0  0  0  0  0  0  0  0  0  0
    3.0797   -0.2286   -1.5447 H   0  0  0  0  0  0  0  0  0  0  0  0
    1.2029    0.4710   -0.1790 H   0  0  0  0  0  0  0  0  0  0  0  0
    1.4196    1.5110   -1.6177 H   0  0  0  0  0  0  0  0  0  0  0  0
    2.6204    3.1959   -0.2122 H   0  0  0  0  0  0  0  0  0  0  0  0
    2.2403    2.1887    1.2657 H   0  0  0  0  0  0  0  0  0  0  0  0
    0.4391    3.7677   -0.6500 H   0  0  0  0  0  0  0  0  0  0  0  0
    0.8757    4.1933    0.9818 H   0  0  0  0  0  0  0  0  0  0  0  0
   -1.3052    2.2272    0.1872 H   0  0  0  0  0  0  0  0  0  0  0  0
   -1.2898    3.7941    0.9573 H   0  0  0  0  0  0  0  0  0  0  0  0
   -0.0618    2.9098    2.9578 H   0  0  0  0  0  0  0  0  0  0  0  0
   -1.7165    2.3541    2.7419 H   0  0  0  0  0  0  0  0  0  0  0  0
    0.6674    0.5646    2.0499 H   0  0  0  0  0  0  0  0  0  0  0  0
   -0.2123    0.6874    3.5635 H   0  0  0  0  0  0  0  0  0  0  0  0
   -2.2784    0.1929    2.6833 H   0  0  0  0  0  0  0  0  0  0  0  0
   -1.7532    0.3713    1.0010 H   0  0  0  0  0  0  0  0  0  0  0  0
   -2.2270   -1.9835    2.1338 H   0  0  0  0  0  0  0  0  0  0  0  0
   -0.7737   -1.6773    3.0637 H   0  0  0  0  0  0  0  0  0  0  0  0
    0.5778   -1.6219    0.7934 H   0  0  0  0  0  0  0  0  0  0  0  0
   -0.0620   -3.1331    1.4049 H   0  0  0  0  0  0  0  0  0  0  0  0
   -0.2384   -2.9633   -0.9229 H   0  0  0  0  0  0  0  0  0  0  0  0
   -1.7406   -3.3490   -0.1180 H   0  0  0  0  0  0  0  0  0  0  0  0
   -2.6618   -1.0463   -0.7770 H   0  0  0  0  0  0  0  0  0  0  0  0
   -2.1373   -2.1197   -2.0498 H   0  0  0  0  0  0  0  0  0  0  0  0
   -1.7460   -0.0110   -2.6381 H   0  0  0  0  0  0  0  0  0  0  0  0
   -0.7926    0.5014   -1.2730 H   0  0  0  0  0  0  0  0  0  0  0  0
    0.5851    0.0125   -3.2591 H   0  0  0  0  0  0  0  0  0  0  0  0
    0.9473   -1.3700   -2.1556 H   0  0  0  0  0  0  0  0  0  0  0  0
   -1.3591   -1.4165   -4.0858 H   0  0  0  0  0  0  0  0  0  0  0  0
    0.3092   -1.8149   -4.6887 H   0  0  0  0  0  0  0  0  0  0  0  0
   -0.4947   -2.8221   -3.4210 H   0  0  0  0  0  0  0  0  0  0  0  0
    5.2847   -2.3977    0.4060 H   0  0  0  0  0  0  0  0  0  0  0  0
    3.6376   -3.7574    1.4396 H   0  0  0  0  0  0  0  0  0  0  0  0
  1  2  1  0
  1 19  1  0
  1 20  1  0
  2  3  1  0
  3  4  1  0
  4  5  1  0
  5  6  1  0
  6  7  1  0
  7  8  1  0
  8  9  1  0
  9 10  1  0
 10 11  1  0
 11 12  1  0
 12 13  1  0
 13 14  1  0
 14 15  1  0
 15 16  1  0
 16 17  1  0
 17 18  1  0
  1 21  1  0
  2 22  1  0
  2 23  1  0
  3 24  1  0
  3 25  1  0
  4 26  1  0
  4 27  1  0
  5 28  1  0
  5 29  1  0
  6 30  1  0
  6 31  1  0
  7 32  1  0
  7 33  1  0
  8 34  1  0
  8 35  1  0
  9 36  1  0
  9 37  1  0
 10 38  1  0
 10 39  1  0
 11 40  1  0
 11 41  1  0
 12 42  1  0
 12 43  1  0
 13 44  1  0
 13 45  1  0
 14 46  1  0
 14 47  1  0
 15 48  1  0
 15 49  1  0
 16 50  1  0
 16 51  1  0
 17 52  1  0
 17 53  1  0
 18 54  1  0
 18 55  1  0
 18 56  1  0
 19 57  1  0
 20 58  1  0
M  END
$$$$
FATTY ACID-BINDING PROTEIN
     RDKit          3D

 58 57  0  0  0  0  0  0  0  0999 V2000
   -2.0870    3.1396    3.4476 C   0  0  0  0  0  0  0  0  0  0  0  0
   -2.5469    4.1166    2.3986 C   0  0  0  0  0  0  0  0  0  0  0  0
   -1.5243    5.1040    2.0084 C   0  0  0  0  0  0  0  0  0  0  0  0
   -0.2990    4.6532    1.3080 C   0  0  0  0  0  0  0  0  0  0  0  0
   -0.6693    4.0702   -0.0466 C   0  0  0  0  0  0  0  0  0  0  0  0
    0.4419    3.6785   -0.9098 C   0  0  0  0  0  0  0  0  0  0  0  0
    1.4514    2.6755   -0.6365 C   0  0  0  0  0  0  0  0  0  0  0  0
    1.1200    1.2186   -0.5225 C   0  0  0  0  0  0  0  0  0  0  0  0
    0.2190    0.8224    0.5630 C   0  0  0  0  0  0  0  0  0  0  0  0
   -0.1445   -0.5964    0.7509 C   0  0  0  0  0  0  0  0  0  0  0  0
   -0.9422   -1.3444   -0.2369 C   0  0  0  0  0  0  0  0  0  0  0  0
   -0.4840   -1.4948   -1.6285 C   0  0  0  0  0  0  0  0  0  0  0  0
   -1.4065   -2.3929   -2.4580 C   0  0  0  0  0  0  0  0  0  0  0  0
   -1.5066   -3.7906   -1.8876 C   0  0  0  0  0  0  0  0  0  0  0  0
   -0.1885   -4.4830   -1.8286 C   0  0  0  0  0  0  0  0  0  0  0  0
   -0.3559   -5.8660   -1.2662 C   0  0  0  0  0  0  0  0  0  0  0  0
   -0.9084   -5.8562    0.1253 C   0  0  0  0  0  0  0  0  0  0  0  0
   -1.0402   -7.2968    0.6448 C   0  0  0  0  0  0  0  0  0  0  0  0
   -1.0065    2.3977    3.0923 O   0  0  0  0  0  0  0  0  0  0  0  0
   -3.2088    2.3170    3.7275 O   0  0  0  0  0  0  0  0  0  0  0  0
   -1.8936    3.7753    4.3678 H   0  0  0  0  0  0  0  0  0  0  0  0
   -3.4036    4.6814    2.8770 H   0  0  0  0  0  0  0  0  0  0  0  0
   -3.0317    3.5993    1.5402 H   0  0  0  0  0  0  0  0  0  0  0  0
   -1.1681    5.5903    2.9740 H   0  0  0  0  0  0  0  0  0  0  0  0
   -1.9651    5.9734    1.4547 H   0  0  0  0  0  0  0  0  0  0  0  0
    0.3264    5.5333    1.1024 H   0  0  0  0  0  0  0  0  0  0  0  0
    0.3194    3.9686    1.9201 H   0  0  0  0  0  0  0  0  0  0  0  0
   -1.1307    5.0046   -0.5723 H   0  0  0  0  0  0  0  0  0  0  0  0
   -1.5240    3.3978   -0.0365 H   0  0  0  0  0  0  0  0  0  0  0  0
   -0.0479    3.3787   -1.9117 H   0  0  0  0  0  0  0  0  0  0  0  0
    0.9474    4.6836   -1.2244 H   0  0  0  0  0  0  0  0  0  0  0  0
    2.2485    2.7921   -1.4625 H   0  0  0  0  0  0  0  0  0  0  0  0
    2.1053    2.9598    0.2739 H   0  0  0  0  0  0  0  0  0  0  0  0
    0.9083    0.8211   -1.5401 H   0  0  0  0  0  0  0  0  0  0  0  0
    2.1539    0.7196   -0.3222 H   0  0  0  0  0  0  0  0  0  0  0  0
    0.7540    1.1205    1.5324 H   0  0  0  0  0  0  0  0  0  0  0  0
   -0.7079    1.4474    0.6109 H   0  0  0  0  0  0  0  0  0  0  0  0
   -0.7367   -0.6185    1.7376 H   0  0  0  0  0  0  0  0  0  0  0  0
    0.7818   -1.1797    1.0608 H   0  0  0  0  0  0  0  0  0  0  0  0
   -2.0221   -0.9414   -0.1993 H   0  0  0  0  0  0  0  0  0  0  0  0
   -1.1162   -2.3882    0.1934 H   0  0  0  0  0  0  0  0  0  0  0  0
   -0.6825   -0.4873   -2.1321 H   0  0  0  0  0  0  0  0  0  0  0  0
    0.5556   -1.7157   -1.7410 H   0  0  0  0  0  0  0  0  0  0  0  0
   -0.9718   -2.4603   -3.4550 H   0  0  0  0  0  0  0  0  0  0  0  0
   -2.3970   -1.9524   -2.4979 H   0  0  0  0  0  0  0  0  0  0  0  0
   -2.0469   -3.8203   -0.9404 H   0  0  0  0  0  0  0  0  0  0  0  0
   -2.1312   -4.3543   -2.6144 H   0  0  0  0  0  0  0  0  0  0  0  0
    0.2173   -4.6137   -2.8763 H   0  0  0  0  0  0  0  0  0  0  0  0
    0.5755   -3.9277   -1.2461 H   0  0  0  0  0  0  0  0  0  0  0  0
   -1.0969   -6.4577   -1.8811 H   0  0  0  0  0  0  0  0  0  0  0  0
    0.5758   -6.4675   -1.3298 H   0  0  0  0  0  0  0  0  0  0  0  0
   -1.8874   -5.3915    0.2454 H   0  0  0  0  0  0  0  0  0  0  0  0
   -0.2284   -5.3326    0.8398 H   0  0  0  0  0  0  0  0  0  0  0  0
   -1.7482   -7.8553   -0.0194 H   0  0  0  0  0  0  0  0  0  0  0  0
   -0.0417   -7.7550    0.4931 H   0  0  0  0  0  0  0  0  0  0  0  0
   -1.3798   -7.2453    1.6811 H   0  0  0  0  0  0  0  0  0  0  0  0
   -0.2662    2.5294    3.7549 H   0  0  0  0  0  0  0  0  0  0  0  0
   -2.8462    1.4003    3.8577 H   0  0  0  0  0  0  0  0  0  0  0  0
  1  2  1  0
  1 19  1  0
  1 20  1  0
  2  3  1  0
  3  4  1  0
  4  5  1  0
  5  6  1  0
  6  7  1  0
  7  8  1  0
  8  9  1  0
  9 10  1  0
 10 11  1  0
 11 12  1  0
 12 13  1  0
 13 14  1  0
 14 15  1  0
 15 16  1  0
 16 17  1  0
 17 18  1  0
  1 21  1  0
  2 22  1  0
  2 23  1  0
  3 24  1  0
  3 25  1  0
  4 26  1  0
  4 27  1  0
  5 28  1  0
  5 29  1  0
  6 30  1  0
  6 31  1  0
  7 32  1  0
  7 33  1  0
  8 34  1  0
  8 35  1  0
  9 36  1  0
  9 37  1  0
 10 38  1  0
 10 39  1  0
 11 40  1  0
 11 41  1  0
 12 42  1  0
 12 43  1  0
 13 44  1  0
 13 45  1  0
 14 46  1  0
 14 47  1  0
 15 48  1  0
 15 49  1  0
 16 50  1  0
 16 51  1  0
 17 52  1  0
 17 53  1  0
 18 54  1  0
 18 55  1  0
 18 56  1  0
 19 57  1  0
 20 58  1  0
M  END
$$$$
FATTY ACID-BINDING PROTEIN
     RDKit          3D

 58 57  0  0  0  0  0  0  0  0999 V2000
    5.4441   -1.1624   -3.3875 C   0  0  0  0  0  0  0  0  0  0  0  0
    4.6208   -2.1473   -4.1467 C   0  0  0  0  0  0  0  0  0  0  0  0
    4.2364   -3.3943   -3.4543 C   0  0  0  0  0  0  0  0  0  0  0  0
    3.4029   -3.1770   -2.2037 C   0  0  0  0  0  0  0  0  0  0  0  0
    3.0234   -4.4937   -1.5780 C   0  0  0  0  0  0  0  0  0  0  0  0
    2.2386   -4.4899   -0.3482 C   0  0  0  0  0  0  0  0  0  0  0  0
    0.8815   -3.9685   -0.2294 C   0  0  0  0  0  0  0  0  0  0  0  0
    0.5333   -2.5672   -0.5043 C   0  0  0  0  0  0  0  0  0  0  0  0
   -0.9935   -2.4605   -0.1726 C   0  0  0  0  0  0  0  0  0  0  0  0
   -1.4311   -1.0642   -0.4253 C   0  0  0  0  0  0  0  0  0  0  0  0
   -2.8626   -0.7828   -0.1605 C   0  0  0  0  0  0  0  0  0  0  0  0
   -3.3502   -1.0058    1.2123 C   0  0  0  0  0  0  0  0  0  0  0  0
   -2.7046   -0.2181    2.2903 C   0  0  0  0  0  0  0  0  0  0  0  0
   -2.8475    1.2863    2.1105 C   0  0  0  0  0  0  0  0  0  0  0  0
   -2.1596    1.9561    3.2530 C   0  0  0  0  0  0  0  0  0  0  0  0
   -2.1186    3.4213    3.3053 C   0  0  0  0  0  0  0  0  0  0  0  0
   -3.3606    4.2110    3.3562 C   0  0  0  0  0  0  0  0  0  0  0  0
   -4.2649    4.0665    2.1637 C   0  0  0  0  0  0  0  0  0  0  0  0
    4.8687   -0.6534   -2.2407 O   0  0  0  0  0  0  0  0  0  0  0  0
    6.7203   -1.6996   -3.1143 O   0  0  0  0  0  0  0  0  0  0  0  0
    5.6692   -0.2837   -4.0602 H   0  0  0  0  0  0  0  0  0  0  0  0
    5.1888   -2.4556   -5.0806 H   0  0  0  0  0  0  0  0  0  0  0  0
    3.7387   -1.5829   -4.5465 H   0  0  0  0  0  0  0  0  0  0  0  0
    5.1763   -3.9546   -3.2058 H   0  0  0  0  0  0  0  0  0  0  0  0
    3.6556   -4.0176   -4.1630 H   0  0  0  0  0  0  0  0  0  0  0  0
    4.0671   -2.5927   -1.4948 H   0  0  0  0  0  0  0  0  0  0  0  0
    2.5299   -2.5765   -2.3891 H   0  0  0  0  0  0  0  0  0  0  0  0
    4.0272   -4.9741   -1.3172 H   0  0  0  0  0  0  0  0  0  0  0  0
    2.6429   -5.2074   -2.3638 H   0  0  0  0  0  0  0  0  0  0  0  0
    2.1763   -5.5830    0.0211 H   0  0  0  0  0  0  0  0  0  0  0  0
    2.9052   -4.0578    0.4764 H   0  0  0  0  0  0  0  0  0  0  0  0
    0.5649   -4.1573    0.8598 H   0  0  0  0  0  0  0  0  0  0  0  0
    0.1199   -4.5978   -0.8105 H   0  0  0  0  0  0  0  0  0  0  0  0
    1.0813   -1.8121    0.0869 H   0  0  0  0  0  0  0  0  0  0  0  0
    0.5347   -2.2753   -1.5784 H   0  0  0  0  0  0  0  0  0  0  0  0
   -1.5182   -3.1720   -0.8399 H   0  0  0  0  0  0  0  0  0  0  0  0
   -1.0795   -2.8304    0.8454 H   0  0  0  0  0  0  0  0  0  0  0  0
   -1.2649   -0.8719   -1.5121 H   0  0  0  0  0  0  0  0  0  0  0  0
   -0.7184   -0.3938    0.0864 H   0  0  0  0  0  0  0  0  0  0  0  0
   -3.0819    0.2294   -0.5697 H   0  0  0  0  0  0  0  0  0  0  0  0
   -3.4476   -1.4762   -0.8206 H   0  0  0  0  0  0  0  0  0  0  0  0
   -4.4402   -0.7834    1.2154 H   0  0  0  0  0  0  0  0  0  0  0  0
   -3.2734   -2.0750    1.4481 H   0  0  0  0  0  0  0  0  0  0  0  0
   -3.2106   -0.4623    3.2486 H   0  0  0  0  0  0  0  0  0  0  0  0
   -1.6339   -0.4641    2.4449 H   0  0  0  0  0  0  0  0  0  0  0  0
   -2.4433    1.6672    1.1683 H   0  0  0  0  0  0  0  0  0  0  0  0
   -3.9480    1.5099    2.0826 H   0  0  0  0  0  0  0  0  0  0  0  0
   -2.6006    1.5577    4.2248 H   0  0  0  0  0  0  0  0  0  0  0  0
   -1.0845    1.6003    3.3484 H   0  0  0  0  0  0  0  0  0  0  0  0
   -1.4652    3.6995    4.1965 H   0  0  0  0  0  0  0  0  0  0  0  0
   -1.4930    3.8403    2.4473 H   0  0  0  0  0  0  0  0  0  0  0  0
   -3.0486    5.3017    3.3520 H   0  0  0  0  0  0  0  0  0  0  0  0
   -3.9199    4.1268    4.3178 H   0  0  0  0  0  0  0  0  0  0  0  0
   -4.6663    5.0630    1.8291 H   0  0  0  0  0  0  0  0  0  0  0  0
   -5.1745    3.4665    2.4287 H   0  0  0  0  0  0  0  0  0  0  0  0
   -3.7255    3.6907    1.2718 H   0  0  0  0  0  0  0  0  0  0  0  0
    4.7053    0.3109   -2.2464 H   0  0  0  0  0  0  0  0  0  0  0  0
    6.7615   -1.8180   -2.1362 H   0  0  0  0  0  0  0  0  0  0  0  0
  1  2  1  0
  1 19  1  0
  1 20  1  0
  2  3  1  0
  3  4  1  0
  4  5  1  0
  5  6  1  0
  6  7  1  0
  7  8  1  0
  8  9  1  0
  9 10  1  0
 10 11  1  0
 11 12  1  0
 12 13  1  0
 13 14  1  0
 14 15  1  0
 15 16  1  0
 16 17  1  0
 17 18  1  0
  1 21  1  0
  2 22  1  0
  2 23  1  0
  3 24  1  0
  3 25  1  0
  4 26  1  0
  4 27  1  0
  5 28  1  0
  5 29  1  0
  6 30  1  0
  6 31  1  0
  7 32  1  0
  7 33  1  0
  8 34  1  0
  8 35  1  0
  9 36  1  0
  9 37  1  0
 10 38  1  0
 10 39  1  0
 11 40  1  0
 11 41  1  0
 12 42  1  0
 12 43  1  0
 13 44  1  0
 13 45  1  0
 14 46  1  0
 14 47  1  0
 15 48  1  0
 15 49  1  0
 16 50  1  0
 16 51  1  0
 17 52  1  0
 17 53  1  0
 18 54  1  0
 18 55  1  0
 18 56  1  0
 19 57  1  0
 20 58  1  0
M  END
$$$$
FATTY ACID-BINDING PROTEIN
     RDKit          3D

 58 57  0  0  0  0  0  0  0  0999 V2000
   -2.6058    2.2143   -4.5077 C   0  0  0  0  0  0  0  0  0  0  0  0
   -2.7942    1.6899   -3.1109 C   0  0  0  0  0  0  0  0  0  0  0  0
   -2.0460    0.4655   -2.7697 C   0  0  0  0  0  0  0  0  0  0  0  0
   -0.5798    0.4928   -2.8464 C   0  0  0  0  0  0  0  0  0  0  0  0
    0.2279    1.4246   -2.0808 C   0  0  0  0  0  0  0  0  0  0  0  0
    0.2459    1.5010   -0.6285 C   0  0  0  0  0  0  0  0  0  0  0  0
   -0.9504    1.8334    0.1550 C   0  0  0  0  0  0  0  0  0  0  0  0
   -0.6924    1.8745    1.6461 C   0  0  0  0  0  0  0  0  0  0  0  0
   -0.1670    0.5288    2.1728 C   0  0  0  0  0  0  0  0  0  0  0  0
   -1.1783   -0.5022    1.8875 C   0  0  0  0  0  0  0  0  0  0  0  0
   -0.9970   -1.8930    2.3082 C   0  0  0  0  0  0  0  0  0  0  0  0
    0.0660   -2.7640    1.8122 C   0  0  0  0  0  0  0  0  0  0  0  0
    1.4999   -2.3841    2.0267 C   0  0  0  0  0  0  0  0  0  0  0  0
    2.4367   -3.4710    1.5085 C   0  0  0  0  0  0  0  0  0  0  0  0
    2.2910   -4.7890    2.1390 C   0  0  0  0  0  0  0  0  0  0  0  0
    2.5557   -4.9714    3.5738 C   0  0  0  0  0  0  0  0  0  0  0  0
    3.9583   -4.7428    4.0602 C   0  0  0  0  0  0  0  0  0  0  0  0
    4.5479   -3.4008    3.8601 C   0  0  0  0  0  0  0  0  0  0  0  0
   -1.3224    2.5547   -4.8419 O   0  0  0  0  0  0  0  0  0  0  0  0
   -3.1623    1.3706   -5.4669 O   0  0  0  0  0  0  0  0  0  0  0  0
   -3.2023    3.1715   -4.5570 H   0  0  0  0  0  0  0  0  0  0  0  0
   -2.6652    2.5357   -2.4129 H   0  0  0  0  0  0  0  0  0  0  0  0
   -3.8912    1.4455   -3.0379 H   0  0  0  0  0  0  0  0  0  0  0  0
   -2.4250   -0.3155   -3.5324 H   0  0  0  0  0  0  0  0  0  0  0  0
   -2.3843    0.0057   -1.8232 H   0  0  0  0  0  0  0  0  0  0  0  0
   -0.1442   -0.5551   -2.7249 H   0  0  0  0  0  0  0  0  0  0  0  0
   -0.3229    0.6767   -3.9388 H   0  0  0  0  0  0  0  0  0  0  0  0
    0.0938    2.4849   -2.4889 H   0  0  0  0  0  0  0  0  0  0  0  0
    1.3034    1.2389   -2.4233 H   0  0  0  0  0  0  0  0  0  0  0  0
    1.0585    2.2145   -0.2864 H   0  0  0  0  0  0  0  0  0  0  0  0
    0.6436    0.5237   -0.1995 H   0  0  0  0  0  0  0  0  0  0  0  0
   -1.2594    2.9167   -0.0935 H   0  0  0  0  0  0  0  0  0  0  0  0
   -1.8664    1.2812    0.0202 H   0  0  0  0  0  0  0  0  0  0  0  0
   -1.5970    2.0721    2.2253 H   0  0  0  0  0  0  0  0  0  0  0  0
    0.0806    2.6652    1.8330 H   0  0  0  0  0  0  0  0  0  0  0  0
   -0.0692    0.7302    3.2931 H   0  0  0  0  0  0  0  0  0  0  0  0
    0.8322    0.3693    1.7881 H   0  0  0  0  0  0  0  0  0  0  0  0
   -2.1408   -0.1437    2.3785 H   0  0  0  0  0  0  0  0  0  0  0  0
   -1.4319   -0.4659    0.7864 H   0  0  0  0  0  0  0  0  0  0  0  0
   -1.0766   -1.9429    3.4508 H   0  0  0  0  0  0  0  0  0  0  0  0
   -1.9907   -2.4128    2.0350 H   0  0  0  0  0  0  0  0  0  0  0  0
   -0.1121   -3.0188    0.7223 H   0  0  0  0  0  0  0  0  0  0  0  0
   -0.0478   -3.7992    2.2908 H   0  0  0  0  0  0  0  0  0  0  0  0
    1.6833   -2.0197    3.0138 H   0  0  0  0  0  0  0  0  0  0  0  0
    1.7225   -1.5399    1.2973 H   0  0  0  0  0  0  0  0  0  0  0  0
    2.1070   -3.5952    0.4290 H   0  0  0  0  0  0  0  0  0  0  0  0
    3.4762   -3.1204    1.4210 H   0  0  0  0  0  0  0  0  0  0  0  0
    1.3026   -5.2759    1.9106 H   0  0  0  0  0  0  0  0  0  0  0  0
    3.0177   -5.4792    1.5963 H   0  0  0  0  0  0  0  0  0  0  0  0
    2.3639   -6.0735    3.7823 H   0  0  0  0  0  0  0  0  0  0  0  0
    1.8047   -4.4796    4.2429 H   0  0  0  0  0  0  0  0  0  0  0  0
    4.6129   -5.5623    3.6576 H   0  0  0  0  0  0  0  0  0  0  0  0
    3.9840   -4.9451    5.1804 H   0  0  0  0  0  0  0  0  0  0  0  0
    3.7725   -2.6292    3.7874 H   0  0  0  0  0  0  0  0  0  0  0  0
    5.2337   -3.1782    4.7407 H   0  0  0  0  0  0  0  0  0  0  0  0
    5.2325   -3.4056    2.9597 H   0  0  0  0  0  0  0  0  0  0  0  0
   -1.0883    3.4004   -4.3956 H   0  0  0  0  0  0  0  0  0  0  0  0
   -3.9884    0.9882   -5.0568 H   0  0  0  0  0  0  0  0  0  0  0  0
  1  2  1  0
  1 19  1  0
  1 20  1  0
  2  3  1  0
  3  4  1  0
  4  5  1  0
  5  6  1  0
  6  7  1  0
  7  8  1  0
  8  9  1  0
  9 10  1  0
 10 11  1  0
 11 12  1  0
 12 13  1  0
 13 14  1  0
 14 15  1  0
 15 16  1  0
 16 17  1  0
 17 18  1  0
  1 21  1  0
  2 22  1  0
  2 23  1  0
  3 24  1  0
  3 25  1  0
  4 26  1  0
  4 27  1  0
  5 28  1  0
  5 29  1  0
  6 30  1  0
  6 31  1  0
  7 32  1  0
  7 33  1  0
  8 34  1  0
  8 35  1  0
  9 36  1  0
  9 37  1  0
 10 38  1  0
 10 39  1  0
 11 40  1  0
 11 41  1  0
 12 42  1  0
 12 43  1  0
 13 44  1  0
 13 45  1  0
 14 46  1  0
 14 47  1  0
 15 48  1  0
 15 49  1  0
 16 50  1  0
 16 51  1  0
 17 52  1  0
 17 53  1  0
 18 54  1  0
 18 55  1  0
 18 56  1  0
 19 57  1  0
 20 58  1  0
M  END
$$$$
FATTY ACID-BINDING PROTEIN
     RDKit          3D

 58 57  0  0  0  0  0  0  0  0999 V2000
    2.1397    2.1811   -3.6003 C   0  0  0  0  0  0  0  0  0  0  0  0
    2.0042    0.8130   -4.2256 C   0  0  0  0  0  0  0  0  0  0  0  0
    1.1373   -0.1188   -3.3797 C   0  0  0  0  0  0  0  0  0  0  0  0
   -0.2402    0.4389   -3.2174 C   0  0  0  0  0  0  0  0  0  0  0  0
   -1.0932   -0.5039   -2.3697 C   0  0  0  0  0  0  0  0  0  0  0  0
   -2.4917    0.0412   -2.2073 C   0  0  0  0  0  0  0  0  0  0  0  0
   -3.3737   -0.8370   -1.3949 C   0  0  0  0  0  0  0  0  0  0  0  0
   -2.9697   -1.1015    0.0053 C   0  0  0  0  0  0  0  0  0  0  0  0
   -2.8596    0.0866    0.9013 C   0  0  0  0  0  0  0  0  0  0  0  0
   -2.4533   -0.4324    2.2863 C   0  0  0  0  0  0  0  0  0  0  0  0
   -2.3108    0.5970    3.2996 C   0  0  0  0  0  0  0  0  0  0  0  0
   -1.4169    1.7288    3.2934 C   0  0  0  0  0  0  0  0  0  0  0  0
    0.0288    1.7353    3.2911 C   0  0  0  0  0  0  0  0  0  0  0  0
    0.9356    1.2797    2.2322 C   0  0  0  0  0  0  0  0  0  0  0  0
    0.9194   -0.1045    1.7513 C   0  0  0  0  0  0  0  0  0  0  0  0
    2.0463   -0.3765    0.7331 C   0  0  0  0  0  0  0  0  0  0  0  0
    1.9291   -1.8244    0.3066 C   0  0  0  0  0  0  0  0  0  0  0  0
    2.9847   -2.2066   -0.6922 C   0  0  0  0  0  0  0  0  0  0  0  0
    2.9457    2.9304   -4.4587 O   0  0  0  0  0  0  0  0  0  0  0  0
    2.7861    2.0728   -2.3695 O   0  0  0  0  0  0  0  0  0  0  0  0
    1.1783    2.6835   -3.4503 H   0  0  0  0  0  0  0  0  0  0  0  0
    1.4561    0.9399   -5.1835 H   0  0  0  0  0  0  0  0  0  0  0  0
    2.9919    0.3895   -4.4029 H   0  0  0  0  0  0  0  0  0  0  0  0
    1.6744   -0.3156   -2.4568 H   0  0  0  0  0  0  0  0  0  0  0  0
    1.1284   -1.0866   -3.9414 H   0  0  0  0  0  0  0  0  0  0  0  0
   -0.7278    0.5162   -4.1890 H   0  0  0  0  0  0  0  0  0  0  0  0
   -0.1657    1.3834   -2.6421 H   0  0  0  0  0  0  0  0  0  0  0  0
   -0.5786   -0.6805   -1.4091 H   0  0  0  0  0  0  0  0  0  0  0  0
   -1.0839   -1.4641   -2.9242 H   0  0  0  0  0  0  0  0  0  0  0  0
   -2.4989    1.1049   -1.9275 H   0  0  0  0  0  0  0  0  0  0  0  0
   -2.9245    0.0330   -3.2521 H   0  0  0  0  0  0  0  0  0  0  0  0
   -4.4434   -0.5044   -1.4497 H   0  0  0  0  0  0  0  0  0  0  0  0
   -3.3806   -1.8417   -1.9154 H   0  0  0  0  0  0  0  0  0  0  0  0
   -3.7854   -1.7444    0.4507 H   0  0  0  0  0  0  0  0  0  0  0  0
   -2.0597   -1.7207    0.0902 H   0  0  0  0  0  0  0  0  0  0  0  0
   -3.8619    0.5461    1.0322 H   0  0  0  0  0  0  0  0  0  0  0  0
   -2.0974    0.7859    0.5629 H   0  0  0  0  0  0  0  0  0  0  0  0
   -3.4065   -1.0189    2.5822 H   0  0  0  0  0  0  0  0  0  0  0  0
   -1.7170   -1.2466    2.2435 H   0  0  0  0  0  0  0  0  0  0  0  0
   -2.1408    0.0416    4.2848 H   0  0  0  0  0  0  0  0  0  0  0  0
   -3.3724    1.0047    3.4945 H   0  0  0  0  0  0  0  0  0  0  0  0
   -1.7358    2.5259    2.5143 H   0  0  0  0  0  0  0  0  0  0  0  0
   -1.7154    2.3403    4.2453 H   0  0  0  0  0  0  0  0  0  0  0  0
    0.4156    2.8252    3.5159 H   0  0  0  0  0  0  0  0  0  0  0  0
    0.4065    1.2796    4.3199 H   0  0  0  0  0  0  0  0  0  0  0  0
    0.7788    1.9848    1.3429 H   0  0  0  0  0  0  0  0  0  0  0  0
    2.0235    1.5290    2.4894 H   0  0  0  0  0  0  0  0  0  0  0  0
   -0.0151   -0.2337    1.1385 H   0  0  0  0  0  0  0  0  0  0  0  0
    0.9835   -0.8286    2.5566 H   0  0  0  0  0  0  0  0  0  0  0  0
    3.0230   -0.1262    1.1365 H   0  0  0  0  0  0  0  0  0  0  0  0
    1.7737    0.2444   -0.1418 H   0  0  0  0  0  0  0  0  0  0  0  0
    0.9548   -2.0374   -0.1541 H   0  0  0  0  0  0  0  0  0  0  0  0
    1.9914   -2.5148    1.1883 H   0  0  0  0  0  0  0  0  0  0  0  0
    2.5723   -2.4026   -1.6825 H   0  0  0  0  0  0  0  0  0  0  0  0
    3.6765   -1.3212   -0.7899 H   0  0  0  0  0  0  0  0  0  0  0  0
    3.5494   -3.1134   -0.3893 H   0  0  0  0  0  0  0  0  0  0  0  0
    3.1042    3.7933   -4.0015 H   0  0  0  0  0  0  0  0  0  0  0  0
    3.3098    2.9171   -2.2105 H   0  0  0  0  0  0  0  0  0  0  0  0
  1  2  1  0
  1 19  1  0
  1 20  1  0
  2  3  1  0
  3  4  1  0
  4  5  1  0
  5  6  1  0
  6  7  1  0
  7  8  1  0
  8  9  1  0
  9 10  1  0
 10 11  1  0
 11 12  1  0
 12 13  1  0
 13 14  1  0
 14 15  1  0
 15 16  1  0
 16 17  1  0
 17 18  1  0
  1 21  1  0
  2 22  1  0
  2 23  1  0
  3 24  1  0
  3 25  1  0
  4 26  1  0
  4 27  1  0
  5 28  1  0
  5 29  1  0
  6 30  1  0
  6 31  1  0
  7 32  1  0
  7 33  1  0
  8 34  1  0
  8 35  1  0
  9 36  1  0
  9 37  1  0
 10 38  1  0
 10 39  1  0
 11 40  1  0
 11 41  1  0
 12 42  1  0
 12 43  1  0
 13 44  1  0
 13 45  1  0
 14 46  1  0
 14 47  1  0
 15 48  1  0
 15 49  1  0
 16 50  1  0
 16 51  1  0
 17 52  1  0
 17 53  1  0
 18 54  1  0
 18 55  1  0
 18 56  1  0
 19 57  1  0
 20 58  1  0
M  END
$$$$
FATTY ACID-BINDING PROTEIN
     RDKit          3D

 58 57  0  0  0  0  0  0  0  0999 V2000
    1.5359    1.2815   -3.7951 C   0  0  0  0  0  0  0  0  0  0  0  0
    1.6728    1.1717   -2.3038 C   0  0  0  0  0  0  0  0  0  0  0  0
    1.9929   -0.3052   -1.9153 C   0  0  0  0  0  0  0  0  0  0  0  0
    2.1159   -0.3521   -0.4456 C   0  0  0  0  0  0  0  0  0  0  0  0
    2.4520   -1.5789    0.2426 C   0  0  0  0  0  0  0  0  0  0  0  0
    1.7105   -2.8294    0.3462 C   0  0  0  0  0  0  0  0  0  0  0  0
    1.2835   -3.7105   -0.7025 C   0  0  0  0  0  0  0  0  0  0  0  0
    0.2611   -3.5144   -1.7252 C   0  0  0  0  0  0  0  0  0  0  0  0
   -1.1464   -3.3652   -1.3408 C   0  0  0  0  0  0  0  0  0  0  0  0
   -1.6999   -2.3176   -0.5025 C   0  0  0  0  0  0  0  0  0  0  0  0
   -1.6498   -0.9055   -0.9111 C   0  0  0  0  0  0  0  0  0  0  0  0
   -2.3109    0.0067    0.1075 C   0  0  0  0  0  0  0  0  0  0  0  0
   -1.7272    0.0075    1.4625 C   0  0  0  0  0  0  0  0  0  0  0  0
   -2.4708    0.9650    2.4045 C   0  0  0  0  0  0  0  0  0  0  0  0
   -2.4350    2.3937    1.9384 C   0  0  0  0  0  0  0  0  0  0  0  0
   -3.1658    3.3334    2.8786 C   0  0  0  0  0  0  0  0  0  0  0  0
   -2.5502    3.3027    4.2549 C   0  0  0  0  0  0  0  0  0  0  0  0
   -1.1053    3.7301    4.1267 C   0  0  0  0  0  0  0  0  0  0  0  0
    0.5238    0.4806   -4.2794 O   0  0  0  0  0  0  0  0  0  0  0  0
    2.7108    0.9330   -4.4563 O   0  0  0  0  0  0  0  0  0  0  0  0
    1.2971    2.3310   -4.0278 H   0  0  0  0  0  0  0  0  0  0  0  0
    2.5046    1.7874   -1.9155 H   0  0  0  0  0  0  0  0  0  0  0  0
    0.7037    1.4519   -1.8470 H   0  0  0  0  0  0  0  0  0  0  0  0
    2.9943   -0.5507   -2.3487 H   0  0  0  0  0  0  0  0  0  0  0  0
    1.2426   -0.8899   -2.4092 H   0  0  0  0  0  0  0  0  0  0  0  0
    2.9252    0.4441   -0.2063 H   0  0  0  0  0  0  0  0  0  0  0  0
    1.2370    0.1278    0.0806 H   0  0  0  0  0  0  0  0  0  0  0  0
    3.5735   -1.8526    0.0312 H   0  0  0  0  0  0  0  0  0  0  0  0
    2.6194   -1.2656    1.3666 H   0  0  0  0  0  0  0  0  0  0  0  0
    2.4203   -3.4953    1.0092 H   0  0  0  0  0  0  0  0  0  0  0  0
    0.8898   -2.7018    1.1630 H   0  0  0  0  0  0  0  0  0  0  0  0
    1.0924   -4.7748   -0.2533 H   0  0  0  0  0  0  0  0  0  0  0  0
    2.2467   -3.9789   -1.3027 H   0  0  0  0  0  0  0  0  0  0  0  0
    0.6389   -2.9311   -2.5747 H   0  0  0  0  0  0  0  0  0  0  0  0
    0.2585   -4.5697   -2.2654 H   0  0  0  0  0  0  0  0  0  0  0  0
   -1.8180   -3.4350   -2.2697 H   0  0  0  0  0  0  0  0  0  0  0  0
   -1.4298   -4.3576   -0.8355 H   0  0  0  0  0  0  0  0  0  0  0  0
   -1.3950   -2.4214    0.5900 H   0  0  0  0  0  0  0  0  0  0  0  0
   -2.8161   -2.5496   -0.3957 H   0  0  0  0  0  0  0  0  0  0  0  0
   -2.2844   -0.8125   -1.8431 H   0  0  0  0  0  0  0  0  0  0  0  0
   -0.6992   -0.4479   -1.1329 H   0  0  0  0  0  0  0  0  0  0  0  0
   -2.2380    1.0565   -0.3079 H   0  0  0  0  0  0  0  0  0  0  0  0
   -3.3969   -0.1772    0.1736 H   0  0  0  0  0  0  0  0  0  0  0  0
   -0.6709    0.3864    1.4997 H   0  0  0  0  0  0  0  0  0  0  0  0
   -1.7925   -1.0195    1.8966 H   0  0  0  0  0  0  0  0  0  0  0  0
   -1.9268    0.9324    3.3810 H   0  0  0  0  0  0  0  0  0  0  0  0
   -3.5298    0.6594    2.4953 H   0  0  0  0  0  0  0  0  0  0  0  0
   -2.7393    2.5510    0.8918 H   0  0  0  0  0  0  0  0  0  0  0  0
   -1.3504    2.7064    1.9646 H   0  0  0  0  0  0  0  0  0  0  0  0
   -2.9982    4.3606    2.4671 H   0  0  0  0  0  0  0  0  0  0  0  0
   -4.2488    3.1046    2.9002 H   0  0  0  0  0  0  0  0  0  0  0  0
   -2.6207    2.2957    4.7082 H   0  0  0  0  0  0  0  0  0  0  0  0
   -3.0673    4.0185    4.9404 H   0  0  0  0  0  0  0  0  0  0  0  0
   -0.7589    4.2656    5.0483 H   0  0  0  0  0  0  0  0  0  0  0  0
   -0.4298    2.8540    3.9822 H   0  0  0  0  0  0  0  0  0  0  0  0
   -0.9546    4.3944    3.2499 H   0  0  0  0  0  0  0  0  0  0  0  0
   -0.3454    0.8646   -4.0005 H   0  0  0  0  0  0  0  0  0  0  0  0
    2.5408    1.1471   -5.4184 H   0  0  0  0  0  0  0  0  0  0  0  0
  1  2  1  0
  1 19  1  0
  1 20  1  0
  2  3  1  0
  3  4  1  0
  4  5  1  0
  5  6  1  0
  6  7  1  0
  7  8  1  0
  8  9  1  0
  9 10  1  0
 10 11  1  0
 11 12  1  0
 12 13  1  0
 13 14  1  0
 14 15  1  0
 15 16  1  0
 16 17  1  0
 17 18  1  0
  1 21  1  0
  2 22  1  0
  2 23  1  0
  3 24  1  0
  3 25  1  0
  4 26  1  0
  4 27  1  0
  5 28  1  0
  5 29  1  0
  6 30  1  0
  6 31  1  0
  7 32  1  0
  7 33  1  0
  8 34  1  0
  8 35  1  0
  9 36  1  0
  9 37  1  0
 10 38  1  0
 10 39  1  0
 11 40  1  0
 11 41  1  0
 12 42  1  0
 12 43  1  0
 13 44  1  0
 13 45  1  0
 14 46  1  0
 14 47  1  0
 15 48  1  0
 15 49  1  0
 16 50  1  0
 16 51  1  0
 17 52  1  0
 17 53  1  0
 18 54  1  0
 18 55  1  0
 18 56  1  0
 19 57  1  0
 20 58  1  0
M  END
$$$$
FATTY ACID-BINDING PROTEIN
     RDKit          3D

 58 57  0  0  0  0  0  0  0  0999 V2000
    4.5422    1.1479    2.0339 C   0  0  0  0  0  0  0  0  0  0  0  0
    3.5359    2.2521    2.3717 C   0  0  0  0  0  0  0  0  0  0  0  0
    2.4294    1.5661    3.1432 C   0  0  0  0  0  0  0  0  0  0  0  0
    1.3504    2.5357    3.5505 C   0  0  0  0  0  0  0  0  0  0  0  0
    0.2265    1.9400    4.3081 C   0  0  0  0  0  0  0  0  0  0  0  0
   -0.5726    0.8384    3.7594 C   0  0  0  0  0  0  0  0  0  0  0  0
   -1.3574    0.9765    2.5165 C   0  0  0  0  0  0  0  0  0  0  0  0
   -0.5449    1.2087    1.2986 C   0  0  0  0  0  0  0  0  0  0  0  0
   -1.4226    1.3121    0.0564 C   0  0  0  0  0  0  0  0  0  0  0  0
   -0.4941    1.5482   -1.1243 C   0  0  0  0  0  0  0  0  0  0  0  0
   -1.3768    1.6222   -2.3274 C   0  0  0  0  0  0  0  0  0  0  0  0
   -2.1565    0.4285   -2.6778 C   0  0  0  0  0  0  0  0  0  0  0  0
   -1.4296   -0.7557   -3.1501 C   0  0  0  0  0  0  0  0  0  0  0  0
   -0.4348   -1.4964   -2.3945 C   0  0  0  0  0  0  0  0  0  0  0  0
   -0.7362   -2.1331   -1.1098 C   0  0  0  0  0  0  0  0  0  0  0  0
   -1.8250   -3.1617   -1.1159 C   0  0  0  0  0  0  0  0  0  0  0  0
   -1.5230   -4.3237   -2.0397 C   0  0  0  0  0  0  0  0  0  0  0  0
   -2.6501   -5.3454   -2.0169 C   0  0  0  0  0  0  0  0  0  0  0  0
    3.9514    0.1598    1.2709 O   0  0  0  0  0  0  0  0  0  0  0  0
    4.9379    0.6190    3.2573 O   0  0  0  0  0  0  0  0  0  0  0  0
    5.4117    1.6083    1.5342 H   0  0  0  0  0  0  0  0  0  0  0  0
    4.0271    2.9622    3.0513 H   0  0  0  0  0  0  0  0  0  0  0  0
    3.1901    2.7842    1.4759 H   0  0  0  0  0  0  0  0  0  0  0  0
    2.0312    0.6619    2.6466 H   0  0  0  0  0  0  0  0  0  0  0  0
    2.9328    1.1581    4.0713 H   0  0  0  0  0  0  0  0  0  0  0  0
    1.8928    3.1986    4.3507 H   0  0  0  0  0  0  0  0  0  0  0  0
    1.1016    3.2695    2.7986 H   0  0  0  0  0  0  0  0  0  0  0  0
   -0.5060    2.7813    4.5329 H   0  0  0  0  0  0  0  0  0  0  0  0
    0.5924    1.6765    5.3658 H   0  0  0  0  0  0  0  0  0  0  0  0
    0.0879   -0.1014    3.6176 H   0  0  0  0  0  0  0  0  0  0  0  0
   -1.2868    0.4439    4.5546 H   0  0  0  0  0  0  0  0  0  0  0  0
   -1.9063    0.0056    2.3585 H   0  0  0  0  0  0  0  0  0  0  0  0
   -2.1596    1.7845    2.6255 H   0  0  0  0  0  0  0  0  0  0  0  0
    0.0458    2.1219    1.3219 H   0  0  0  0  0  0  0  0  0  0  0  0
    0.1683    0.3590    1.2060 H   0  0  0  0  0  0  0  0  0  0  0  0
   -2.0088    2.2508    0.2084 H   0  0  0  0  0  0  0  0  0  0  0  0
   -2.1143    0.4917   -0.0413 H   0  0  0  0  0  0  0  0  0  0  0  0
    0.3700    0.9101   -1.1546 H   0  0  0  0  0  0  0  0  0  0  0  0
   -0.0632    2.5947   -0.9844 H   0  0  0  0  0  0  0  0  0  0  0  0
   -0.7837    2.0105   -3.2133 H   0  0  0  0  0  0  0  0  0  0  0  0
   -2.0571    2.5202   -2.1188 H   0  0  0  0  0  0  0  0  0  0  0  0
   -2.8188    0.7516   -3.5626 H   0  0  0  0  0  0  0  0  0  0  0  0
   -2.9416    0.1782   -1.8991 H   0  0  0  0  0  0  0  0  0  0  0  0
   -0.8437   -0.3574   -4.0727 H   0  0  0  0  0  0  0  0  0  0  0  0
   -2.1373   -1.4615   -3.7317 H   0  0  0  0  0  0  0  0  0  0  0  0
    0.5259   -0.9469   -2.3463 H   0  0  0  0  0  0  0  0  0  0  0  0
   -0.1160   -2.3615   -3.1297 H   0  0  0  0  0  0  0  0  0  0  0  0
    0.2046   -2.7235   -0.8320 H   0  0  0  0  0  0  0  0  0  0  0  0
   -0.8510   -1.4529   -0.2623 H   0  0  0  0  0  0  0  0  0  0  0  0
   -1.9283   -3.6115   -0.1070 H   0  0  0  0  0  0  0  0  0  0  0  0
   -2.8113   -2.7812   -1.4078 H   0  0  0  0  0  0  0  0  0  0  0  0
   -0.6231   -4.8662   -1.7043 H   0  0  0  0  0  0  0  0  0  0  0  0
   -1.3800   -3.9565   -3.0766 H   0  0  0  0  0  0  0  0  0  0  0  0
   -2.2866   -6.2574   -2.5375 H   0  0  0  0  0  0  0  0  0  0  0  0
   -2.8752   -5.6250   -0.9729 H   0  0  0  0  0  0  0  0  0  0  0  0
   -3.5393   -4.9427   -2.5183 H   0  0  0  0  0  0  0  0  0  0  0  0
    3.2312    0.4598    0.6927 H   0  0  0  0  0  0  0  0  0  0  0  0
    4.6152   -0.2908    3.3913 H   0  0  0  0  0  0  0  0  0  0  0  0
  1  2  1  0
  1 19  1  0
  1 20  1  0
  2  3  1  0
  3  4  1  0
  4  5  1  0
  5  6  1  0
  6  7  1  0
  7  8  1  0
  8  9  1  0
  9 10  1  0
 10 11  1  0
 11 12  1  0
 12 13  1  0
 13 14  1  0
 14 15  1  0
 15 16  1  0
 16 17  1  0
 17 18  1  0
  1 21  1  0
  2 22  1  0
  2 23  1  0
  3 24  1  0
  3 25  1  0
  4 26  1  0
  4 27  1  0
  5 28  1  0
  5 29  1  0
  6 30  1  0
  6 31  1  0
  7 32  1  0
  7 33  1  0
  8 34  1  0
  8 35  1  0
  9 36  1  0
  9 37  1  0
 10 38  1  0
 10 39  1  0
 11 40  1  0
 11 41  1  0
 12 42  1  0
 12 43  1  0
 13 44  1  0
 13 45  1  0
 14 46  1  0
 14 47  1  0
 15 48  1  0
 15 49  1  0
 16 50  1  0
 16 51  1  0
 17 52  1  0
 17 53  1  0
 18 54  1  0
 18 55  1  0
 18 56  1  0
 19 57  1  0
 20 58  1  0
M  END
$$$$
FATTY ACID-BINDING PROTEIN
     RDKit          3D

 58 57  0  0  0  0  0  0  0  0999 V2000
    1.6065    4.8227   -0.9050 C   0  0  0  0  0  0  0  0  0  0  0  0
    1.1627    4.5017   -2.3054 C   0  0  0  0  0  0  0  0  0  0  0  0
   -0.1668    3.8955   -2.4544 C   0  0  0  0  0  0  0  0  0  0  0  0
   -0.5227    2.6066   -1.8740 C   0  0  0  0  0  0  0  0  0  0  0  0
    0.1010    1.3424   -2.2836 C   0  0  0  0  0  0  0  0  0  0  0  0
    1.5730    1.1289   -2.0969 C   0  0  0  0  0  0  0  0  0  0  0  0
    2.0015   -0.2470   -2.4942 C   0  0  0  0  0  0  0  0  0  0  0  0
    1.5520   -1.4046   -1.6831 C   0  0  0  0  0  0  0  0  0  0  0  0
    2.1530   -1.3549   -0.2634 C   0  0  0  0  0  0  0  0  0  0  0  0
    1.8961   -2.5480    0.5457 C   0  0  0  0  0  0  0  0  0  0  0  0
    0.5486   -2.8739    1.0090 C   0  0  0  0  0  0  0  0  0  0  0  0
   -0.1078   -2.0802    2.0468 C   0  0  0  0  0  0  0  0  0  0  0  0
   -0.5010   -0.7036    2.0201 C   0  0  0  0  0  0  0  0  0  0  0  0
   -1.4985   -0.1106    1.1253 C   0  0  0  0  0  0  0  0  0  0  0  0
   -2.9122   -0.5853    1.1882 C   0  0  0  0  0  0  0  0  0  0  0  0
   -3.1872   -1.9905    0.7656 C   0  0  0  0  0  0  0  0  0  0  0  0
   -2.8115   -2.1668   -0.7029 C   0  0  0  0  0  0  0  0  0  0  0  0
   -3.0756   -3.6029   -1.0784 C   0  0  0  0  0  0  0  0  0  0  0  0
    2.8960    5.3797   -0.9959 O   0  0  0  0  0  0  0  0  0  0  0  0
    1.6298    3.8030   -0.0120 O   0  0  0  0  0  0  0  0  0  0  0  0
    0.9912    5.6458   -0.4608 H   0  0  0  0  0  0  0  0  0  0  0  0
    1.9257    4.0478   -2.9227 H   0  0  0  0  0  0  0  0  0  0  0  0
    1.0477    5.5611   -2.7739 H   0  0  0  0  0  0  0  0  0  0  0  0
   -0.3450    3.8182   -3.5887 H   0  0  0  0  0  0  0  0  0  0  0  0
   -0.9844    4.6463   -2.1821 H   0  0  0  0  0  0  0  0  0  0  0  0
   -1.6515    2.4827   -2.0558 H   0  0  0  0  0  0  0  0  0  0  0  0
   -0.4886    2.7114   -0.7446 H   0  0  0  0  0  0  0  0  0  0  0  0
   -0.4052    0.4531   -1.8761 H   0  0  0  0  0  0  0  0  0  0  0  0
   -0.1046    1.1838   -3.4292 H   0  0  0  0  0  0  0  0  0  0  0  0
    2.1165    1.8312   -2.7588 H   0  0  0  0  0  0  0  0  0  0  0  0
    1.8673    1.3761   -1.0539 H   0  0  0  0  0  0  0  0  0  0  0  0
    1.7349   -0.3598   -3.5874 H   0  0  0  0  0  0  0  0  0  0  0  0
    3.1335   -0.2993   -2.5208 H   0  0  0  0  0  0  0  0  0  0  0  0
    0.4603   -1.3309   -1.5098 H   0  0  0  0  0  0  0  0  0  0  0  0
    1.7230   -2.3807   -2.1430 H   0  0  0  0  0  0  0  0  0  0  0  0
    1.6601   -0.4652    0.1885 H   0  0  0  0  0  0  0  0  0  0  0  0
    3.2590   -1.1996   -0.3390 H   0  0  0  0  0  0  0  0  0  0  0  0
    2.5316   -2.3958    1.5034 H   0  0  0  0  0  0  0  0  0  0  0  0
    2.3991   -3.4693    0.0659 H   0  0  0  0  0  0  0  0  0  0  0  0
   -0.1496   -3.1192    0.1477 H   0  0  0  0  0  0  0  0  0  0  0  0
    0.6439   -3.9392    1.4692 H   0  0  0  0  0  0  0  0  0  0  0  0
    0.6639   -2.1253    2.9562 H   0  0  0  0  0  0  0  0  0  0  0  0
   -0.9274   -2.7097    2.5239 H   0  0  0  0  0  0  0  0  0  0  0  0
   -0.9333   -0.4934    3.0911 H   0  0  0  0  0  0  0  0  0  0  0  0
    0.3742    0.0318    2.0660 H   0  0  0  0  0  0  0  0  0  0  0  0
   -1.1633   -0.0634    0.0588 H   0  0  0  0  0  0  0  0  0  0  0  0
   -1.5547    0.9961    1.4052 H   0  0  0  0  0  0  0  0  0  0  0  0
   -3.5914    0.0605    0.5687 H   0  0  0  0  0  0  0  0  0  0  0  0
   -3.3185   -0.4374    2.2315 H   0  0  0  0  0  0  0  0  0  0  0  0
   -2.8615   -2.7894    1.4094 H   0  0  0  0  0  0  0  0  0  0  0  0
   -4.3336   -2.0614    0.7506 H   0  0  0  0  0  0  0  0  0  0  0  0
   -1.7846   -1.8700   -0.8911 H   0  0  0  0  0  0  0  0  0  0  0  0
   -3.5353   -1.5338   -1.2891 H   0  0  0  0  0  0  0  0  0  0  0  0
   -3.8074   -4.0699   -0.4034 H   0  0  0  0  0  0  0  0  0  0  0  0
   -2.1342   -4.1899   -0.9949 H   0  0  0  0  0  0  0  0  0  0  0  0
   -3.4590   -3.6930   -2.1214 H   0  0  0  0  0  0  0  0  0  0  0  0
    3.4938    4.6398   -1.2714 H   0  0  0  0  0  0  0  0  0  0  0  0
    2.5411    3.4293    0.1701 H   0  0  0  0  0  0  0  0  0  0  0  0
  1  2  1  0
  1 19  1  0
  1 20  1  0
  2  3  1  0
  3  4  1  0
  4  5  1  0
  5  6  1  0
  6  7  1  0
  7  8  1  0
  8  9  1  0
  9 10  1  0
 10 11  1  0
 11 12  1  0
 12 13  1  0
 13 14  1  0
 14 15  1  0
 15 16  1  0
 16 17  1  0
 17 18  1  0
  1 21  1  0
  2 22  1  0
  2 23  1  0
  3 24  1  0
  3 25  1  0
  4 26  1  0
  4 27  1  0
  5 28  1  0
  5 29  1  0
  6 30  1  0
  6 31  1  0
  7 32  1  0
  7 33  1  0
  8 34  1  0
  8 35  1  0
  9 36  1  0
  9 37  1  0
 10 38  1  0
 10 39  1  0
 11 40  1  0
 11 41  1  0
 12 42  1  0
 12 43  1  0
 13 44  1  0
 13 45  1  0
 14 46  1  0
 14 47  1  0
 15 48  1  0
 15 49  1  0
 16 50  1  0
 16 51  1  0
 17 52  1  0
 17 53  1  0
 18 54  1  0
 18 55  1  0
 18 56  1  0
 19 57  1  0
 20 58  1  0
M  END
$$$$
FATTY ACID-BINDING PROTEIN
     RDKit          3D

 58 57  0  0  0  0  0  0  0  0999 V2000
    3.8680    1.4904    4.4632 C   0  0  0  0  0  0  0  0  0  0  0  0
    2.8497    2.5631    4.4925 C   0  0  0  0  0  0  0  0  0  0  0  0
    1.4584    2.2742    4.1016 C   0  0  0  0  0  0  0  0  0  0  0  0
    0.6822    1.3257    4.8804 C   0  0  0  0  0  0  0  0  0  0  0  0
    0.9903   -0.0790    5.0709 C   0  0  0  0  0  0  0  0  0  0  0  0
    1.1003   -0.9726    3.8808 C   0  0  0  0  0  0  0  0  0  0  0  0
   -0.2250   -0.9945    3.1018 C   0  0  0  0  0  0  0  0  0  0  0  0
   -0.0513   -1.9266    1.8939 C   0  0  0  0  0  0  0  0  0  0  0  0
   -1.3271   -1.9446    1.1481 C   0  0  0  0  0  0  0  0  0  0  0  0
   -1.3800   -2.7903   -0.0674 C   0  0  0  0  0  0  0  0  0  0  0  0
   -0.4298   -2.4832   -1.1550 C   0  0  0  0  0  0  0  0  0  0  0  0
   -0.5239   -1.1208   -1.7503 C   0  0  0  0  0  0  0  0  0  0  0  0
   -1.8158   -0.7482   -2.3747 C   0  0  0  0  0  0  0  0  0  0  0  0
   -1.6704    0.6846   -2.9117 C   0  0  0  0  0  0  0  0  0  0  0  0
   -2.9048    1.1559   -3.5792 C   0  0  0  0  0  0  0  0  0  0  0  0
   -3.3581    0.4353   -4.7880 C   0  0  0  0  0  0  0  0  0  0  0  0
   -2.4847    0.4698   -5.9839 C   0  0  0  0  0  0  0  0  0  0  0  0
   -1.1069   -0.0822   -5.8639 C   0  0  0  0  0  0  0  0  0  0  0  0
    5.1131    2.0246    4.8719 O   0  0  0  0  0  0  0  0  0  0  0  0
    4.0137    0.8980    3.2099 O   0  0  0  0  0  0  0  0  0  0  0  0
    3.6279    0.7039    5.1868 H   0  0  0  0  0  0  0  0  0  0  0  0
    2.8423    3.0274    5.5367 H   0  0  0  0  0  0  0  0  0  0  0  0
    3.2938    3.4159    3.8745 H   0  0  0  0  0  0  0  0  0  0  0  0
    1.3474    2.1474    2.9790 H   0  0  0  0  0  0  0  0  0  0  0  0
    0.9068    3.2773    4.2207 H   0  0  0  0  0  0  0  0  0  0  0  0
   -0.4132    1.4360    4.5445 H   0  0  0  0  0  0  0  0  0  0  0  0
    0.5968    1.7811    5.9339 H   0  0  0  0  0  0  0  0  0  0  0  0
    0.0420   -0.5034    5.6075 H   0  0  0  0  0  0  0  0  0  0  0  0
    1.7520   -0.3035    5.8303 H   0  0  0  0  0  0  0  0  0  0  0  0
    1.8572   -0.7501    3.1463 H   0  0  0  0  0  0  0  0  0  0  0  0
    1.2272   -2.0208    4.2212 H   0  0  0  0  0  0  0  0  0  0  0  0
   -1.0156   -1.3987    3.7670 H   0  0  0  0  0  0  0  0  0  0  0  0
   -0.5404    0.0094    2.7913 H   0  0  0  0  0  0  0  0  0  0  0  0
    0.2031   -2.9051    2.3529 H   0  0  0  0  0  0  0  0  0  0  0  0
    0.8435   -1.6190    1.3491 H   0  0  0  0  0  0  0  0  0  0  0  0
   -1.6612   -0.9174    0.8921 H   0  0  0  0  0  0  0  0  0  0  0  0
   -2.1098   -2.3028    1.8516 H   0  0  0  0  0  0  0  0  0  0  0  0
   -1.1865   -3.8594    0.2207 H   0  0  0  0  0  0  0  0  0  0  0  0
   -2.4068   -2.8038   -0.4869 H   0  0  0  0  0  0  0  0  0  0  0  0
   -0.6777   -3.1987   -1.9838 H   0  0  0  0  0  0  0  0  0  0  0  0
    0.6322   -2.6951   -0.9461 H   0  0  0  0  0  0  0  0  0  0  0  0
    0.2481   -1.0497   -2.5466 H   0  0  0  0  0  0  0  0  0  0  0  0
   -0.2383   -0.3062   -1.0356 H   0  0  0  0  0  0  0  0  0  0  0  0
   -2.0870   -1.4176   -3.1979 H   0  0  0  0  0  0  0  0  0  0  0  0
   -2.6582   -0.6669   -1.6463 H   0  0  0  0  0  0  0  0  0  0  0  0
   -0.7266    0.8321   -3.4412 H   0  0  0  0  0  0  0  0  0  0  0  0
   -1.5662    1.2991   -1.9617 H   0  0  0  0  0  0  0  0  0  0  0  0
   -2.7280    2.2469   -3.8315 H   0  0  0  0  0  0  0  0  0  0  0  0
   -3.7298    1.1454   -2.8299 H   0  0  0  0  0  0  0  0  0  0  0  0
   -3.5508   -0.6305   -4.4768 H   0  0  0  0  0  0  0  0  0  0  0  0
   -4.3769    0.8567   -5.0518 H   0  0  0  0  0  0  0  0  0  0  0  0
   -2.4314    1.5263   -6.3895 H   0  0  0  0  0  0  0  0  0  0  0  0
   -2.9939   -0.0831   -6.8329 H   0  0  0  0  0  0  0  0  0  0  0  0
   -0.3761    0.7741   -5.7769 H   0  0  0  0  0  0  0  0  0  0  0  0
   -0.9379   -0.8537   -5.1232 H   0  0  0  0  0  0  0  0  0  0  0  0
   -0.7946   -0.5595   -6.8549 H   0  0  0  0  0  0  0  0  0  0  0  0
    5.5189    2.3841    4.0439 H   0  0  0  0  0  0  0  0  0  0  0  0
    3.5512    1.4296    2.5036 H   0  0  0  0  0  0  0  0  0  0  0  0
  1  2  1  0
  1 19  1  0
  1 20  1  0
  2  3  1  0
  3  4  1  0
  4  5  1  0
  5  6  1  0
  6  7  1  0
  7  8  1  0
  8  9  1  0
  9 10  1  0
 10 11  1  0
 11 12  1  0
 12 13  1  0
 13 14  1  0
 14 15  1  0
 15 16  1  0
 16 17  1  0
 17 18  1  0
  1 21  1  0
  2 22  1  0
  2 23  1  0
  3 24  1  0
  3 25  1  0
  4 26  1  0
  4 27  1  0
  5 28  1  0
  5 29  1  0
  6 30  1  0
  6 31  1  0
  7 32  1  0
  7 33  1  0
  8 34  1  0
  8 35  1  0
  9 36  1  0
  9 37  1  0
 10 38  1  0
 10 39  1  0
 11 40  1  0
 11 41  1  0
 12 42  1  0
 12 43  1  0
 13 44  1  0
 13 45  1  0
 14 46  1  0
 14 47  1  0
 15 48  1  0
 15 49  1  0
 16 50  1  0
 16 51  1  0
 17 52  1  0
 17 53  1  0
 18 54  1  0
 18 55  1  0
 18 56  1  0
 19 57  1  0
 20 58  1  0
M  END
$$$$
FATTY ACID-BINDING PROTEIN
     RDKit          3D

 58 57  0  0  0  0  0  0  0  0999 V2000
   -3.0799    2.3494    4.3139 C   0  0  0  0  0  0  0  0  0  0  0  0
   -3.0918    1.1849    3.3728 C   0  0  0  0  0  0  0  0  0  0  0  0
   -1.9479    1.1814    2.3818 C   0  0  0  0  0  0  0  0  0  0  0  0
   -0.6127    1.1384    3.0407 C   0  0  0  0  0  0  0  0  0  0  0  0
    0.5256    1.1299    2.0241 C   0  0  0  0  0  0  0  0  0  0  0  0
    0.5423    2.3330    1.1445 C   0  0  0  0  0  0  0  0  0  0  0  0
    1.6840    2.3125    0.1610 C   0  0  0  0  0  0  0  0  0  0  0  0
    1.6172    1.0975   -0.7590 C   0  0  0  0  0  0  0  0  0  0  0  0
    0.3468    1.0753   -1.5431 C   0  0  0  0  0  0  0  0  0  0  0  0
    0.1987   -0.0818   -2.4989 C   0  0  0  0  0  0  0  0  0  0  0  0
    0.2315   -1.3901   -1.7671 C   0  0  0  0  0  0  0  0  0  0  0  0
    0.1298   -2.6193   -2.5548 C   0  0  0  0  0  0  0  0  0  0  0  0
    1.1206   -3.2137   -3.4147 C   0  0  0  0  0  0  0  0  0  0  0  0
    1.8783   -2.5781   -4.4875 C   0  0  0  0  0  0  0  0  0  0  0  0
    2.9693   -1.6414   -4.0551 C   0  0  0  0  0  0  0  0  0  0  0  0
    3.6501   -0.9906   -5.2680 C   0  0  0  0  0  0  0  0  0  0  0  0
    4.7309   -0.0704   -4.7479 C   0  0  0  0  0  0  0  0  0  0  0  0
    4.1657    1.0088   -3.8563 C   0  0  0  0  0  0  0  0  0  0  0  0
   -3.1592    3.5761    3.6767 O   0  0  0  0  0  0  0  0  0  0  0  0
   -4.2372    2.2430    5.0899 O   0  0  0  0  0  0  0  0  0  0  0  0
   -2.2383    2.3051    5.0443 H   0  0  0  0  0  0  0  0  0  0  0  0
   -4.0447    1.1490    2.8400 H   0  0  0  0  0  0  0  0  0  0  0  0
   -2.9687    0.2666    3.9940 H   0  0  0  0  0  0  0  0  0  0  0  0
   -2.0733    0.2574    1.7803 H   0  0  0  0  0  0  0  0  0  0  0  0
   -1.9953    2.0324    1.6853 H   0  0  0  0  0  0  0  0  0  0  0  0
   -0.5106    0.2189    3.6462 H   0  0  0  0  0  0  0  0  0  0  0  0
   -0.4708    2.0109    3.7347 H   0  0  0  0  0  0  0  0  0  0  0  0
    0.3188    0.2231    1.3802 H   0  0  0  0  0  0  0  0  0  0  0  0
    1.5026    1.0238    2.5088 H   0  0  0  0  0  0  0  0  0  0  0  0
    0.6826    3.2272    1.8159 H   0  0  0  0  0  0  0  0  0  0  0  0
   -0.3956    2.4761    0.5431 H   0  0  0  0  0  0  0  0  0  0  0  0
    2.6515    2.3213    0.7041 H   0  0  0  0  0  0  0  0  0  0  0  0
    1.6614    3.2495   -0.4547 H   0  0  0  0  0  0  0  0  0  0  0  0
    1.6725    0.2249   -0.0943 H   0  0  0  0  0  0  0  0  0  0  0  0
    2.4964    1.1293   -1.4671 H   0  0  0  0  0  0  0  0  0  0  0  0
    0.2121    2.0157   -2.1254 H   0  0  0  0  0  0  0  0  0  0  0  0
   -0.5319    1.0151   -0.8528 H   0  0  0  0  0  0  0  0  0  0  0  0
    0.7926    0.0499   -3.3796 H   0  0  0  0  0  0  0  0  0  0  0  0
   -0.9066    0.0153   -2.8460 H   0  0  0  0  0  0  0  0  0  0  0  0
   -0.6701   -1.3456   -1.0704 H   0  0  0  0  0  0  0  0  0  0  0  0
    1.0794   -1.4097   -1.0254 H   0  0  0  0  0  0  0  0  0  0  0  0
   -0.1598   -3.4659   -1.8026 H   0  0  0  0  0  0  0  0  0  0  0  0
   -0.8717   -2.6045   -3.1436 H   0  0  0  0  0  0  0  0  0  0  0  0
    1.8719   -3.8407   -2.7929 H   0  0  0  0  0  0  0  0  0  0  0  0
    0.5747   -4.1108   -3.9276 H   0  0  0  0  0  0  0  0  0  0  0  0
    2.4117   -3.3962   -5.0802 H   0  0  0  0  0  0  0  0  0  0  0  0
    1.2379   -2.1114   -5.2868 H   0  0  0  0  0  0  0  0  0  0  0  0
    3.8197   -2.3277   -3.6776 H   0  0  0  0  0  0  0  0  0  0  0  0
    2.7257   -0.9399   -3.2834 H   0  0  0  0  0  0  0  0  0  0  0  0
    4.1692   -1.7589   -5.8767 H   0  0  0  0  0  0  0  0  0  0  0  0
    2.9193   -0.4827   -5.8993 H   0  0  0  0  0  0  0  0  0  0  0  0
    5.3415    0.3582   -5.5604 H   0  0  0  0  0  0  0  0  0  0  0  0
    5.4027   -0.7038   -4.0973 H   0  0  0  0  0  0  0  0  0  0  0  0
    4.4803    0.8786   -2.7879 H   0  0  0  0  0  0  0  0  0  0  0  0
    4.5484    2.0108   -4.1636 H   0  0  0  0  0  0  0  0  0  0  0  0
    3.0620    0.9744   -3.8931 H   0  0  0  0  0  0  0  0  0  0  0  0
   -3.9871    4.0862    3.8625 H   0  0  0  0  0  0  0  0  0  0  0  0
   -4.1188    1.4829    5.7280 H   0  0  0  0  0  0  0  0  0  0  0  0
  1  2  1  0
  1 19  1  0
  1 20  1  0
  2  3  1  0
  3  4  1  0
  4  5  1  0
  5  6  1  0
  6  7  1  0
  7  8  1  0
  8  9  1  0
  9 10  1  0
 10 11  1  0
 11 12  1  0
 12 13  1  0
 13 14  1  0
 14 15  1  0
 15 16  1  0
 16 17  1  0
 17 18  1  0
  1 21  1  0
  2 22  1  0
  2 23  1  0
  3 24  1  0
  3 25  1  0
  4 26  1  0
  4 27  1  0
  5 28  1  0
  5 29  1  0
  6 30  1  0
  6 31  1  0
  7 32  1  0
  7 33  1  0
  8 34  1  0
  8 35  1  0
  9 36  1  0
  9 37  1  0
 10 38  1  0
 10 39  1  0
 11 40  1  0
 11 41  1  0
 12 42  1  0
 12 43  1  0
 13 44  1  0
 13 45  1  0
 14 46  1  0
 14 47  1  0
 15 48  1  0
 15 49  1  0
 16 50  1  0
 16 51  1  0
 17 52  1  0
 17 53  1  0
 18 54  1  0
 18 55  1  0
 18 56  1  0
 19 57  1  0
 20 58  1  0
M  END
$$$$
FATTY ACID-BINDING PROTEIN
     RDKit          3D

 58 57  0  0  0  0  0  0  0  0999 V2000
   -1.7932    0.1748   -3.6099 C   0  0  0  0  0  0  0  0  0  0  0  0
   -1.9614   -1.2249   -4.1222 C   0  0  0  0  0  0  0  0  0  0  0  0
   -2.7285   -2.1283   -3.2026 C   0  0  0  0  0  0  0  0  0  0  0  0
   -2.0834   -2.3064   -1.8385 C   0  0  0  0  0  0  0  0  0  0  0  0
   -0.7161   -2.8908   -1.9299 C   0  0  0  0  0  0  0  0  0  0  0  0
   -0.0192   -3.1016   -0.6300 C   0  0  0  0  0  0  0  0  0  0  0  0
    0.1752   -1.7794    0.1429 C   0  0  0  0  0  0  0  0  0  0  0  0
    0.8839   -2.0451    1.4252 C   0  0  0  0  0  0  0  0  0  0  0  0
    1.1506   -0.8602    2.3133 C   0  0  0  0  0  0  0  0  0  0  0  0
    1.9941    0.1466    1.6059 C   0  0  0  0  0  0  0  0  0  0  0  0
    2.3808    1.3537    2.3193 C   0  0  0  0  0  0  0  0  0  0  0  0
    1.4601    2.4111    2.7695 C   0  0  0  0  0  0  0  0  0  0  0  0
    0.7294    3.2124    1.7972 C   0  0  0  0  0  0  0  0  0  0  0  0
   -0.3171    2.7973    0.8837 C   0  0  0  0  0  0  0  0  0  0  0  0
   -1.6495    2.3973    1.3874 C   0  0  0  0  0  0  0  0  0  0  0  0
   -1.8256    1.2604    2.2910 C   0  0  0  0  0  0  0  0  0  0  0  0
   -3.3369    1.1768    2.6207 C   0  0  0  0  0  0  0  0  0  0  0  0
   -3.6091    0.0354    3.5449 C   0  0  0  0  0  0  0  0  0  0  0  0
   -1.1209    0.2606   -2.4176 O   0  0  0  0  0  0  0  0  0  0  0  0
   -1.1806    1.0048   -4.5592 O   0  0  0  0  0  0  0  0  0  0  0  0
   -2.8160    0.6363   -3.4732 H   0  0  0  0  0  0  0  0  0  0  0  0
   -2.5748   -1.1674   -5.0675 H   0  0  0  0  0  0  0  0  0  0  0  0
   -1.0007   -1.6747   -4.4550 H   0  0  0  0  0  0  0  0  0  0  0  0
   -3.7279   -1.6693   -3.0312 H   0  0  0  0  0  0  0  0  0  0  0  0
   -2.8707   -3.1371   -3.6200 H   0  0  0  0  0  0  0  0  0  0  0  0
   -2.7177   -3.0779   -1.3123 H   0  0  0  0  0  0  0  0  0  0  0  0
   -2.1499   -1.4157   -1.2219 H   0  0  0  0  0  0  0  0  0  0  0  0
   -0.0717   -2.2630   -2.5879 H   0  0  0  0  0  0  0  0  0  0  0  0
   -0.7712   -3.8993   -2.4297 H   0  0  0  0  0  0  0  0  0  0  0  0
   -0.6012   -3.8000   -0.0111 H   0  0  0  0  0  0  0  0  0  0  0  0
    0.9832   -3.5207   -0.8438 H   0  0  0  0  0  0  0  0  0  0  0  0
    0.7297   -1.0785   -0.5030 H   0  0  0  0  0  0  0  0  0  0  0  0
   -0.8352   -1.3558    0.2757 H   0  0  0  0  0  0  0  0  0  0  0  0
    1.8419   -2.5845    1.2014 H   0  0  0  0  0  0  0  0  0  0  0  0
    0.2966   -2.8040    2.0238 H   0  0  0  0  0  0  0  0  0  0  0  0
    0.2946   -0.4811    2.8559 H   0  0  0  0  0  0  0  0  0  0  0  0
    1.8779   -1.3029    3.1064 H   0  0  0  0  0  0  0  0  0  0  0  0
    2.9524   -0.4014    1.3349 H   0  0  0  0  0  0  0  0  0  0  0  0
    1.5228    0.3122    0.6125 H   0  0  0  0  0  0  0  0  0  0  0  0
    3.1915    1.8757    1.6987 H   0  0  0  0  0  0  0  0  0  0  0  0
    3.0293    0.9959    3.2073 H   0  0  0  0  0  0  0  0  0  0  0  0
    0.8291    2.0866    3.6597 H   0  0  0  0  0  0  0  0  0  0  0  0
    2.1459    3.1671    3.3061 H   0  0  0  0  0  0  0  0  0  0  0  0
    0.2727    4.1039    2.3913 H   0  0  0  0  0  0  0  0  0  0  0  0
    1.5279    3.7769    1.1953 H   0  0  0  0  0  0  0  0  0  0  0  0
   -0.5307    3.7247    0.2360 H   0  0  0  0  0  0  0  0  0  0  0  0
    0.0322    2.0854    0.0711 H   0  0  0  0  0  0  0  0  0  0  0  0
   -2.1397    3.3445    1.8003 H   0  0  0  0  0  0  0  0  0  0  0  0
   -2.3420    2.1919    0.4961 H   0  0  0  0  0  0  0  0  0  0  0  0
   -1.3281    1.2421    3.2478 H   0  0  0  0  0  0  0  0  0  0  0  0
   -1.5752    0.2844    1.7691 H   0  0  0  0  0  0  0  0  0  0  0  0
   -3.6825    2.1452    3.0107 H   0  0  0  0  0  0  0  0  0  0  0  0
   -3.8622    0.9813    1.6634 H   0  0  0  0  0  0  0  0  0  0  0  0
   -4.5401    0.2728    4.1016 H   0  0  0  0  0  0  0  0  0  0  0  0
   -2.8274   -0.1621    4.2792 H   0  0  0  0  0  0  0  0  0  0  0  0
   -3.7586   -0.8964    2.9461 H   0  0  0  0  0  0  0  0  0  0  0  0
   -1.4602    0.9963   -1.8637 H   0  0  0  0  0  0  0  0  0  0  0  0
   -1.4969    1.9261   -4.4721 H   0  0  0  0  0  0  0  0  0  0  0  0
  1  2  1  0
  1 19  1  0
  1 20  1  0
  2  3  1  0
  3  4  1  0
  4  5  1  0
  5  6  1  0
  6  7  1  0
  7  8  1  0
  8  9  1  0
  9 10  1  0
 10 11  1  0
 11 12  1  0
 12 13  1  0
 13 14  1  0
 14 15  1  0
 15 16  1  0
 16 17  1  0
 17 18  1  0
  1 21  1  0
  2 22  1  0
  2 23  1  0
  3 24  1  0
  3 25  1  0
  4 26  1  0
  4 27  1  0
  5 28  1  0
  5 29  1  0
  6 30  1  0
  6 31  1  0
  7 32  1  0
  7 33  1  0
  8 34  1  0
  8 35  1  0
  9 36  1  0
  9 37  1  0
 10 38  1  0
 10 39  1  0
 11 40  1  0
 11 41  1  0
 12 42  1  0
 12 43  1  0
 13 44  1  0
 13 45  1  0
 14 46  1  0
 14 47  1  0
 15 48  1  0
 15 49  1  0
 16 50  1  0
 16 51  1  0
 17 52  1  0
 17 53  1  0
 18 54  1  0
 18 55  1  0
 18 56  1  0
 19 57  1  0
 20 58  1  0
M  END
$$$$
FATTY ACID-BINDING PROTEIN
     RDKit          3D

 58 57  0  0  0  0  0  0  0  0999 V2000
    2.0127   -2.3201   -0.9223 C   0  0  0  0  0  0  0  0  0  0  0  0
    0.5628   -2.4088   -1.2389 C   0  0  0  0  0  0  0  0  0  0  0  0
   -0.0335   -1.5037   -2.2180 C   0  0  0  0  0  0  0  0  0  0  0  0
   -0.0537   -0.0469   -2.0777 C   0  0  0  0  0  0  0  0  0  0  0  0
    1.2503    0.6919   -2.0109 C   0  0  0  0  0  0  0  0  0  0  0  0
    0.9239    2.1771   -2.0096 C   0  0  0  0  0  0  0  0  0  0  0  0
    2.0466    3.0757   -1.9879 C   0  0  0  0  0  0  0  0  0  0  0  0
    3.0788    3.2738   -1.0142 C   0  0  0  0  0  0  0  0  0  0  0  0
    2.9176    3.8347    0.3215 C   0  0  0  0  0  0  0  0  0  0  0  0
    2.1692    3.3556    1.4658 C   0  0  0  0  0  0  0  0  0  0  0  0
    0.7073    3.1777    1.3306 C   0  0  0  0  0  0  0  0  0  0  0  0
    0.0876    2.8969    2.7185 C   0  0  0  0  0  0  0  0  0  0  0  0
   -1.3871    2.7200    2.6432 C   0  0  0  0  0  0  0  0  0  0  0  0
   -1.8500    1.5109    1.8617 C   0  0  0  0  0  0  0  0  0  0  0  0
   -1.3459    0.2377    2.5400 C   0  0  0  0  0  0  0  0  0  0  0  0
   -1.8041   -0.9751    1.7956 C   0  0  0  0  0  0  0  0  0  0  0  0
   -1.3351   -2.2567    2.4665 C   0  0  0  0  0  0  0  0  0  0  0  0
    0.1504   -2.3526    2.5871 C   0  0  0  0  0  0  0  0  0  0  0  0
    2.8287   -2.5015   -2.0471 O   0  0  0  0  0  0  0  0  0  0  0  0
    2.3193   -3.5103   -0.1472 O   0  0  0  0  0  0  0  0  0  0  0  0
    2.3461   -1.5290   -0.2493 H   0  0  0  0  0  0  0  0  0  0  0  0
    0.4146   -3.4959   -1.6020 H   0  0  0  0  0  0  0  0  0  0  0  0
    0.0081   -2.4404   -0.2568 H   0  0  0  0  0  0  0  0  0  0  0  0
    0.3064   -1.8222   -3.2632 H   0  0  0  0  0  0  0  0  0  0  0  0
   -1.1473   -1.8055   -2.2828 H   0  0  0  0  0  0  0  0  0  0  0  0
   -0.6961    0.3497   -2.9298 H   0  0  0  0  0  0  0  0  0  0  0  0
   -0.7017    0.1964   -1.1843 H   0  0  0  0  0  0  0  0  0  0  0  0
    1.7708    0.3956   -1.1066 H   0  0  0  0  0  0  0  0  0  0  0  0
    1.8561    0.5098   -2.9192 H   0  0  0  0  0  0  0  0  0  0  0  0
    0.4406    2.2929   -3.0557 H   0  0  0  0  0  0  0  0  0  0  0  0
    0.0685    2.3431   -1.3605 H   0  0  0  0  0  0  0  0  0  0  0  0
    2.5662    3.0172   -3.0374 H   0  0  0  0  0  0  0  0  0  0  0  0
    1.5719    4.1318   -2.1467 H   0  0  0  0  0  0  0  0  0  0  0  0
    3.7402    2.3439   -0.8574 H   0  0  0  0  0  0  0  0  0  0  0  0
    3.9006    3.9494   -1.5049 H   0  0  0  0  0  0  0  0  0  0  0  0
    2.6665    4.9940    0.1930 H   0  0  0  0  0  0  0  0  0  0  0  0
    4.0045    4.0154    0.7758 H   0  0  0  0  0  0  0  0  0  0  0  0
    2.3085    4.1264    2.3047 H   0  0  0  0  0  0  0  0  0  0  0  0
    2.6331    2.3864    1.8458 H   0  0  0  0  0  0  0  0  0  0  0  0
    0.5510    2.1972    0.8178 H   0  0  0  0  0  0  0  0  0  0  0  0
    0.2238    3.9814    0.7951 H   0  0  0  0  0  0  0  0  0  0  0  0
    0.2783    3.8113    3.3157 H   0  0  0  0  0  0  0  0  0  0  0  0
    0.5541    2.0033    3.1283 H   0  0  0  0  0  0  0  0  0  0  0  0
   -1.8851    3.5982    2.1445 H   0  0  0  0  0  0  0  0  0  0  0  0
   -1.8286    2.6431    3.6377 H   0  0  0  0  0  0  0  0  0  0  0  0
   -1.5408    1.5355    0.8003 H   0  0  0  0  0  0  0  0  0  0  0  0
   -2.9518    1.4833    1.9193 H   0  0  0  0  0  0  0  0  0  0  0  0
   -1.6466    0.2288    3.6061 H   0  0  0  0  0  0  0  0  0  0  0  0
   -0.2284    0.2073    2.5597 H   0  0  0  0  0  0  0  0  0  0  0  0
   -2.9264   -1.0180    1.8413 H   0  0  0  0  0  0  0  0  0  0  0  0
   -1.5222   -0.9580    0.7439 H   0  0  0  0  0  0  0  0  0  0  0  0
   -1.7095   -3.0789    1.7949 H   0  0  0  0  0  0  0  0  0  0  0  0
   -1.8486   -2.3879    3.4461 H   0  0  0  0  0  0  0  0  0  0  0  0
    0.7057   -1.6883    1.9132 H   0  0  0  0  0  0  0  0  0  0  0  0
    0.4481   -3.4029    2.3637 H   0  0  0  0  0  0  0  0  0  0  0  0
    0.5178   -2.1496    3.6205 H   0  0  0  0  0  0  0  0  0  0  0  0
    2.6654   -1.7828   -2.7125 H   0  0  0  0  0  0  0  0  0  0  0  0
    3.2877   -3.3928    0.0744 H   0  0  0  0  0  0  0  0  0  0  0  0
  1  2  1  0
  1 19  1  0
  1 20  1  0
  2  3  1  0
  3  4  1  0
  4  5  1  0
  5  6  1  0
  6  7  1  0
  7  8  1  0
  8  9  1  0
  9 10  1  0
 10 11  1  0
 11 12  1  0
 12 13  1  0
 13 14  1  0
 14 15  1  0
 15 16  1  0
 16 17  1  0
 17 18  1  0
  1 21  1  0
  2 22  1  0
  2 23  1  0
  3 24  1  0
  3 25  1  0
  4 26  1  0
  4 27  1  0
  5 28  1  0
  5 29  1  0
  6 30  1  0
  6 31  1  0
  7 32  1  0
  7 33  1  0
  8 34  1  0
  8 35  1  0
  9 36  1  0
  9 37  1  0
 10 38  1  0
 10 39  1  0
 11 40  1  0
 11 41  1  0
 12 42  1  0
 12 43  1  0
 13 44  1  0
 13 45  1  0
 14 46  1  0
 14 47  1  0
 15 48  1  0
 15 49  1  0
 16 50  1  0
 16 51  1  0
 17 52  1  0
 17 53  1  0
 18 54  1  0
 18 55  1  0
 18 56  1  0
 19 57  1  0
 20 58  1  0
M  END
$$$$
FATTY ACID-BINDING PROTEIN
     RDKit          3D

 58 57  0  0  0  0  0  0  0  0999 V2000
   -3.5259   -2.4304    0.7192 C   0  0  0  0  0  0  0  0  0  0  0  0
   -2.6008   -1.2349    0.9419 C   0  0  0  0  0  0  0  0  0  0  0  0
   -3.3312   -0.3042    1.8562 C   0  0  0  0  0  0  0  0  0  0  0  0
   -2.5792    0.9025    2.1888 C   0  0  0  0  0  0  0  0  0  0  0  0
   -2.1757    1.9087    1.2157 C   0  0  0  0  0  0  0  0  0  0  0  0
   -1.3116    1.6595    0.0753 C   0  0  0  0  0  0  0  0  0  0  0  0
    0.0584    1.1248    0.3001 C   0  0  0  0  0  0  0  0  0  0  0  0
    0.9661    1.9502    1.1168 C   0  0  0  0  0  0  0  0  0  0  0  0
    1.3116    3.3090    0.7277 C   0  0  0  0  0  0  0  0  0  0  0  0
    1.9705    3.7104   -0.5073 C   0  0  0  0  0  0  0  0  0  0  0  0
    3.3211    3.2317   -0.8620 C   0  0  0  0  0  0  0  0  0  0  0  0
    3.5529    1.8044   -1.1495 C   0  0  0  0  0  0  0  0  0  0  0  0
    2.7829    1.3026   -2.3572 C   0  0  0  0  0  0  0  0  0  0  0  0
    3.0822   -0.1694   -2.5207 C   0  0  0  0  0  0  0  0  0  0  0  0
    2.3575   -0.7542   -3.6999 C   0  0  0  0  0  0  0  0  0  0  0  0
    2.6722   -2.2062   -3.8399 C   0  0  0  0  0  0  0  0  0  0  0  0
    2.2809   -3.0166   -2.6451 C   0  0  0  0  0  0  0  0  0  0  0  0
    2.6465   -4.4793   -2.9026 C   0  0  0  0  0  0  0  0  0  0  0  0
   -4.6886   -1.9211    0.1437 O   0  0  0  0  0  0  0  0  0  0  0  0
   -3.8136   -2.9241    2.0045 O   0  0  0  0  0  0  0  0  0  0  0  0
   -3.0175   -3.1946    0.1175 H   0  0  0  0  0  0  0  0  0  0  0  0
   -1.7329   -1.6374    1.5520 H   0  0  0  0  0  0  0  0  0  0  0  0
   -2.2223   -0.8392    0.0158 H   0  0  0  0  0  0  0  0  0  0  0  0
   -3.5014   -0.9200    2.8015 H   0  0  0  0  0  0  0  0  0  0  0  0
   -4.3842   -0.1221    1.5184 H   0  0  0  0  0  0  0  0  0  0  0  0
   -1.7119    0.5940    2.8839 H   0  0  0  0  0  0  0  0  0  0  0  0
   -3.2222    1.4645    2.9618 H   0  0  0  0  0  0  0  0  0  0  0  0
   -1.8397    2.8143    1.8396 H   0  0  0  0  0  0  0  0  0  0  0  0
   -3.1526    2.3416    0.7947 H   0  0  0  0  0  0  0  0  0  0  0  0
   -1.8497    1.2147   -0.7727 H   0  0  0  0  0  0  0  0  0  0  0  0
   -1.0892    2.7185   -0.3683 H   0  0  0  0  0  0  0  0  0  0  0  0
    0.5598    0.7515   -0.5984 H   0  0  0  0  0  0  0  0  0  0  0  0
   -0.1023    0.1676    0.9031 H   0  0  0  0  0  0  0  0  0  0  0  0
    1.8811    1.3749    1.3595 H   0  0  0  0  0  0  0  0  0  0  0  0
    0.5168    2.0639    2.1819 H   0  0  0  0  0  0  0  0  0  0  0  0
    0.4549    4.0473    0.8779 H   0  0  0  0  0  0  0  0  0  0  0  0
    2.0126    3.6809    1.5708 H   0  0  0  0  0  0  0  0  0  0  0  0
    2.0820    4.8529   -0.4288 H   0  0  0  0  0  0  0  0  0  0  0  0
    1.2868    3.6575   -1.4178 H   0  0  0  0  0  0  0  0  0  0  0  0
    4.0554    3.5269   -0.0510 H   0  0  0  0  0  0  0  0  0  0  0  0
    3.7470    3.8012   -1.7563 H   0  0  0  0  0  0  0  0  0  0  0  0
    3.4473    1.1867   -0.2546 H   0  0  0  0  0  0  0  0  0  0  0  0
    4.6598    1.7201   -1.4352 H   0  0  0  0  0  0  0  0  0  0  0  0
    1.7354    1.5773   -2.3941 H   0  0  0  0  0  0  0  0  0  0  0  0
    3.2359    1.8330   -3.2631 H   0  0  0  0  0  0  0  0  0  0  0  0
    2.8426   -0.7139   -1.5809 H   0  0  0  0  0  0  0  0  0  0  0  0
    4.1697   -0.2991   -2.6636 H   0  0  0  0  0  0  0  0  0  0  0  0
    2.7307   -0.2183   -4.5997 H   0  0  0  0  0  0  0  0  0  0  0  0
    1.2837   -0.5514   -3.6222 H   0  0  0  0  0  0  0  0  0  0  0  0
    3.7313   -2.3870   -4.0790 H   0  0  0  0  0  0  0  0  0  0  0  0
    2.1045   -2.6430   -4.7087 H   0  0  0  0  0  0  0  0  0  0  0  0
    1.1850   -2.9800   -2.5342 H   0  0  0  0  0  0  0  0  0  0  0  0
    2.8415   -2.7380   -1.7243 H   0  0  0  0  0  0  0  0  0  0  0  0
    2.3457   -4.7927   -3.9175 H   0  0  0  0  0  0  0  0  0  0  0  0
    3.7096   -4.6551   -2.7249 H   0  0  0  0  0  0  0  0  0  0  0  0
    2.0449   -5.0883   -2.1734 H   0  0  0  0  0  0  0  0  0  0  0  0
   -5.0166   -2.5281   -0.5564 H   0  0  0  0  0  0  0  0  0  0  0  0
   -4.7558   -2.7557    2.2517 H   0  0  0  0  0  0  0  0  0  0  0  0
  1  2  1  0
  1 19  1  0
  1 20  1  0
  2  3  1  0
  3  4  1  0
  4  5  1  0
  5  6  1  0
  6  7  1  0
  7  8  1  0
  8  9  1  0
  9 10  1  0
 10 11  1  0
 11 12  1  0
 12 13  1  0
 13 14  1  0
 14 15  1  0
 15 16  1  0
 16 17  1  0
 17 18  1  0
  1 21  1  0
  2 22  1  0
  2 23  1  0
  3 24  1  0
  3 25  1  0
  4 26  1  0
  4 27  1  0
  5 28  1  0
  5 29  1  0
  6 30  1  0
  6 31  1  0
  7 32  1  0
  7 33  1  0
  8 34  1  0
  8 35  1  0
  9 36  1  0
  9 37  1  0
 10 38  1  0
 10 39  1  0
 11 40  1  0
 11 41  1  0
 12 42  1  0
 12 43  1  0
 13 44  1  0
 13 45  1  0
 14 46  1  0
 14 47  1  0
 15 48  1  0
 15 49  1  0
 16 50  1  0
 16 51  1  0
 17 52  1  0
 17 53  1  0
 18 54  1  0
 18 55  1  0
 18 56  1  0
 19 57  1  0
 20 58  1  0
M  END
$$$$
FATTY ACID-BINDING PROTEIN
     RDKit          3D

 58 57  0  0  0  0  0  0  0  0999 V2000
   -4.2889   -1.3037   -0.5047 C   0  0  0  0  0  0  0  0  0  0  0  0
   -3.7669   -2.0915    0.6642 C   0  0  0  0  0  0  0  0  0  0  0  0
   -3.4814   -1.2005    1.8560 C   0  0  0  0  0  0  0  0  0  0  0  0
   -2.4502   -0.1357    1.5605 C   0  0  0  0  0  0  0  0  0  0  0  0
   -1.1246   -0.7553    1.1435 C   0  0  0  0  0  0  0  0  0  0  0  0
   -0.5715   -1.6427    2.2391 C   0  0  0  0  0  0  0  0  0  0  0  0
   -0.2918   -0.9316    3.4948 C   0  0  0  0  0  0  0  0  0  0  0  0
    0.7414    0.1036    3.4999 C   0  0  0  0  0  0  0  0  0  0  0  0
    2.1615   -0.1831    3.3406 C   0  0  0  0  0  0  0  0  0  0  0  0
    2.7906   -0.8171    2.1898 C   0  0  0  0  0  0  0  0  0  0  0  0
    2.6836   -0.1780    0.8480 C   0  0  0  0  0  0  0  0  0  0  0  0
    3.2416    1.2101    0.7881 C   0  0  0  0  0  0  0  0  0  0  0  0
    3.1166    1.8454   -0.5696 C   0  0  0  0  0  0  0  0  0  0  0  0
    3.8231    1.0971   -1.6431 C   0  0  0  0  0  0  0  0  0  0  0  0
    3.7156    1.7205   -3.0009 C   0  0  0  0  0  0  0  0  0  0  0  0
    2.3351    1.8656   -3.5248 C   0  0  0  0  0  0  0  0  0  0  0  0
    1.5968    0.5573   -3.6657 C   0  0  0  0  0  0  0  0  0  0  0  0
    2.2523   -0.4133   -4.5899 C   0  0  0  0  0  0  0  0  0  0  0  0
   -4.5104   -2.2465   -1.5345 O   0  0  0  0  0  0  0  0  0  0  0  0
   -5.5082   -0.7063   -0.2187 O   0  0  0  0  0  0  0  0  0  0  0  0
   -3.5412   -0.5754   -0.8963 H   0  0  0  0  0  0  0  0  0  0  0  0
   -4.5849   -2.7706    0.9796 H   0  0  0  0  0  0  0  0  0  0  0  0
   -2.9085   -2.6934    0.3516 H   0  0  0  0  0  0  0  0  0  0  0  0
   -4.4515   -0.6932    2.1055 H   0  0  0  0  0  0  0  0  0  0  0  0
   -3.2491   -1.8042    2.7540 H   0  0  0  0  0  0  0  0  0  0  0  0
   -2.8373    0.4643    0.7144 H   0  0  0  0  0  0  0  0  0  0  0  0
   -2.3773    0.5012    2.4388 H   0  0  0  0  0  0  0  0  0  0  0  0
   -0.4397    0.0425    0.8131 H   0  0  0  0  0  0  0  0  0  0  0  0
   -1.3314   -1.4005    0.2726 H   0  0  0  0  0  0  0  0  0  0  0  0
   -1.3494   -2.4337    2.4170 H   0  0  0  0  0  0  0  0  0  0  0  0
    0.3070   -2.1680    1.8606 H   0  0  0  0  0  0  0  0  0  0  0  0
   -1.2332   -0.5821    4.0204 H   0  0  0  0  0  0  0  0  0  0  0  0
    0.0652   -1.7389    4.2285 H   0  0  0  0  0  0  0  0  0  0  0  0
    0.6240    0.6760    4.4930 H   0  0  0  0  0  0  0  0  0  0  0  0
    0.4781    0.8615    2.6811 H   0  0  0  0  0  0  0  0  0  0  0  0
    2.4269   -0.8758    4.2365 H   0  0  0  0  0  0  0  0  0  0  0  0
    2.7718    0.7431    3.6803 H   0  0  0  0  0  0  0  0  0  0  0  0
    2.5121   -1.8847    2.1048 H   0  0  0  0  0  0  0  0  0  0  0  0
    3.9098   -0.8901    2.4552 H   0  0  0  0  0  0  0  0  0  0  0  0
    1.7386   -0.2941    0.3468 H   0  0  0  0  0  0  0  0  0  0  0  0
    3.4083   -0.7912    0.1954 H   0  0  0  0  0  0  0  0  0  0  0  0
    2.7407    1.9007    1.5209 H   0  0  0  0  0  0  0  0  0  0  0  0
    4.3147    1.2514    1.0765 H   0  0  0  0  0  0  0  0  0  0  0  0
    3.3945    2.9221   -0.5313 H   0  0  0  0  0  0  0  0  0  0  0  0
    2.0356    1.8282   -0.8141 H   0  0  0  0  0  0  0  0  0  0  0  0
    4.9014    1.0499   -1.3846 H   0  0  0  0  0  0  0  0  0  0  0  0
    3.4594    0.0389   -1.6347 H   0  0  0  0  0  0  0  0  0  0  0  0
    4.1570    2.7366   -2.9424 H   0  0  0  0  0  0  0  0  0  0  0  0
    4.3193    1.1494   -3.7117 H   0  0  0  0  0  0  0  0  0  0  0  0
    2.4215    2.2785   -4.5531 H   0  0  0  0  0  0  0  0  0  0  0  0
    1.6927    2.5772   -2.9902 H   0  0  0  0  0  0  0  0  0  0  0  0
    0.6038    0.8006   -4.0983 H   0  0  0  0  0  0  0  0  0  0  0  0
    1.4023    0.0520   -2.6979 H   0  0  0  0  0  0  0  0  0  0  0  0
    1.9433   -0.2442   -5.6312 H   0  0  0  0  0  0  0  0  0  0  0  0
    3.3501   -0.4923   -4.4539 H   0  0  0  0  0  0  0  0  0  0  0  0
    1.8699   -1.4409   -4.3217 H   0  0  0  0  0  0  0  0  0  0  0  0
   -3.6846   -2.2918   -2.1019 H   0  0  0  0  0  0  0  0  0  0  0  0
   -5.6151    0.1175   -0.7308 H   0  0  0  0  0  0  0  0  0  0  0  0
  1  2  1  0
  1 19  1  0
  1 20  1  0
  2  3  1  0
  3  4  1  0
  4  5  1  0
  5  6  1  0
  6  7  1  0
  7  8  1  0
  8  9  1  0
  9 10  1  0
 10 11  1  0
 11 12  1  0
 12 13  1  0
 13 14  1  0
 14 15  1  0
 15 16  1  0
 16 17  1  0
 17 18  1  0
  1 21  1  0
  2 22  1  0
  2 23  1  0
  3 24  1  0
  3 25  1  0
  4 26  1  0
  4 27  1  0
  5 28  1  0
  5 29  1  0
  6 30  1  0
  6 31  1  0
  7 32  1  0
  7 33  1  0
  8 34  1  0
  8 35  1  0
  9 36  1  0
  9 37  1  0
 10 38  1  0
 10 39  1  0
 11 40  1  0
 11 41  1  0
 12 42  1  0
 12 43  1  0
 13 44  1  0
 13 45  1  0
 14 46  1  0
 14 47  1  0
 15 48  1  0
 15 49  1  0
 16 50  1  0
 16 51  1  0
 17 52  1  0
 17 53  1  0
 18 54  1  0
 18 55  1  0
 18 56  1  0
 19 57  1  0
 20 58  1  0
M  END
$$$$
FATTY ACID-BINDING PROTEIN
     RDKit          3D

 58 57  0  0  0  0  0  0  0  0999 V2000
   -1.8404   -4.8165    0.3445 C   0  0  0  0  0  0  0  0  0  0  0  0
   -1.9263   -3.5690   -0.5024 C   0  0  0  0  0  0  0  0  0  0  0  0
   -0.5772   -3.1586   -1.0486 C   0  0  0  0  0  0  0  0  0  0  0  0
    0.0481   -4.1994   -1.9081 C   0  0  0  0  0  0  0  0  0  0  0  0
    1.3781   -3.7110   -2.4141 C   0  0  0  0  0  0  0  0  0  0  0  0
    2.3797   -3.3915   -1.3566 C   0  0  0  0  0  0  0  0  0  0  0  0
    3.6807   -2.9156   -2.0139 C   0  0  0  0  0  0  0  0  0  0  0  0
    4.7323   -2.5803   -0.9820 C   0  0  0  0  0  0  0  0  0  0  0  0
    4.3035   -1.4932   -0.0431 C   0  0  0  0  0  0  0  0  0  0  0  0
    3.9898   -0.2051   -0.7270 C   0  0  0  0  0  0  0  0  0  0  0  0
    3.5558    0.8998    0.2410 C   0  0  0  0  0  0  0  0  0  0  0  0
    2.3289    0.5131    0.9983 C   0  0  0  0  0  0  0  0  0  0  0  0
    1.8656    1.5761    1.9640 C   0  0  0  0  0  0  0  0  0  0  0  0
    1.5336    2.8761    1.2667 C   0  0  0  0  0  0  0  0  0  0  0  0
    0.4348    2.7006    0.2514 C   0  0  0  0  0  0  0  0  0  0  0  0
    0.1336    4.0363   -0.4263 C   0  0  0  0  0  0  0  0  0  0  0  0
   -0.9674    3.8415   -1.4378 C   0  0  0  0  0  0  0  0  0  0  0  0
   -0.5450    2.8483   -2.4694 C   0  0  0  0  0  0  0  0  0  0  0  0
   -3.1526   -5.0949    0.7920 O   0  0  0  0  0  0  0  0  0  0  0  0
   -1.0784   -4.6489    1.4725 O   0  0  0  0  0  0  0  0  0  0  0  0
   -1.5606   -5.6520   -0.3024 H   0  0  0  0  0  0  0  0  0  0  0  0
   -2.3094   -2.7148    0.0942 H   0  0  0  0  0  0  0  0  0  0  0  0
   -2.6272   -3.7164   -1.3435 H   0  0  0  0  0  0  0  0  0  0  0  0
   -0.7684   -2.2565   -1.6800 H   0  0  0  0  0  0  0  0  0  0  0  0
    0.0844   -2.8156   -0.2320 H   0  0  0  0  0  0  0  0  0  0  0  0
   -0.5950   -4.3480   -2.8257 H   0  0  0  0  0  0  0  0  0  0  0  0
    0.1030   -5.1960   -1.4499 H   0  0  0  0  0  0  0  0  0  0  0  0
    1.8407   -4.4502   -3.1300 H   0  0  0  0  0  0  0  0  0  0  0  0
    1.2694   -2.7858   -3.0355 H   0  0  0  0  0  0  0  0  0  0  0  0
    2.0489   -2.6734   -0.6016 H   0  0  0  0  0  0  0  0  0  0  0  0
    2.6388   -4.3459   -0.8455 H   0  0  0  0  0  0  0  0  0  0  0  0
    4.1076   -3.7208   -2.6474 H   0  0  0  0  0  0  0  0  0  0  0  0
    3.5310   -2.0124   -2.6380 H   0  0  0  0  0  0  0  0  0  0  0  0
    5.6371   -2.2678   -1.5528 H   0  0  0  0  0  0  0  0  0  0  0  0
    4.9908   -3.5122   -0.4776 H   0  0  0  0  0  0  0  0  0  0  0  0
    5.1929   -1.3108    0.6313 H   0  0  0  0  0  0  0  0  0  0  0  0
    3.4819   -1.8602    0.5823 H   0  0  0  0  0  0  0  0  0  0  0  0
    3.1941   -0.3695   -1.4910 H   0  0  0  0  0  0  0  0  0  0  0  0
    4.9012    0.1471   -1.2539 H   0  0  0  0  0  0  0  0  0  0  0  0
    3.4593    1.8071   -0.3548 H   0  0  0  0  0  0  0  0  0  0  0  0
    4.3980    1.0642    0.9416 H   0  0  0  0  0  0  0  0  0  0  0  0
    1.4842    0.2200    0.3762 H   0  0  0  0  0  0  0  0  0  0  0  0
    2.6079   -0.3646    1.6515 H   0  0  0  0  0  0  0  0  0  0  0  0
    0.9042    1.2022    2.3894 H   0  0  0  0  0  0  0  0  0  0  0  0
    2.5620    1.7131    2.7969 H   0  0  0  0  0  0  0  0  0  0  0  0
    2.3907    3.3475    0.7765 H   0  0  0  0  0  0  0  0  0  0  0  0
    1.1650    3.5790    2.0417 H   0  0  0  0  0  0  0  0  0  0  0  0
    0.6989    1.9617   -0.5323 H   0  0  0  0  0  0  0  0  0  0  0  0
   -0.5222    2.3640    0.7298 H   0  0  0  0  0  0  0  0  0  0  0  0
   -0.1087    4.8043    0.3262 H   0  0  0  0  0  0  0  0  0  0  0  0
    1.0469    4.3768   -0.9647 H   0  0  0  0  0  0  0  0  0  0  0  0
   -1.2494    4.7965   -1.8933 H   0  0  0  0  0  0  0  0  0  0  0  0
   -1.8864    3.4935   -0.8855 H   0  0  0  0  0  0  0  0  0  0  0  0
   -1.1567    1.9132   -2.3881 H   0  0  0  0  0  0  0  0  0  0  0  0
   -0.7422    3.2149   -3.5176 H   0  0  0  0  0  0  0  0  0  0  0  0
    0.5330    2.6344   -2.4508 H   0  0  0  0  0  0  0  0  0  0  0  0
   -3.0835   -5.7453    1.5393 H   0  0  0  0  0  0  0  0  0  0  0  0
   -0.1612   -4.9912    1.2620 H   0  0  0  0  0  0  0  0  0  0  0  0
  1  2  1  0
  1 19  1  0
  1 20  1  0
  2  3  1  0
  3  4  1  0
  4  5  1  0
  5  6  1  0
  6  7  1  0
  7  8  1  0
  8  9  1  0
  9 10  1  0
 10 11  1  0
 11 12  1  0
 12 13  1  0
 13 14  1  0
 14 15  1  0
 15 16  1  0
 16 17  1  0
 17 18  1  0
  1 21  1  0
  2 22  1  0
  2 23  1  0
  3 24  1  0
  3 25  1  0
  4 26  1  0
  4 27  1  0
  5 28  1  0
  5 29  1  0
  6 30  1  0
  6 31  1  0
  7 32  1  0
  7 33  1  0
  8 34  1  0
  8 35  1  0
  9 36  1  0
  9 37  1  0
 10 38  1  0
 10 39  1  0
 11 40  1  0
 11 41  1  0
 12 42  1  0
 12 43  1  0
 13 44  1  0
 13 45  1  0
 14 46  1  0
 14 47  1  0
 15 48  1  0
 15 49  1  0
 16 50  1  0
 16 51  1  0
 17 52  1  0
 17 53  1  0
 18 54  1  0
 18 55  1  0
 18 56  1  0
 19 57  1  0
 20 58  1  0
M  END
$$$$
FATTY ACID-BINDING PROTEIN
     RDKit          3D

 58 57  0  0  0  0  0  0  0  0999 V2000
   -4.6057    4.2620    3.4196 C   0  0  0  0  0  0  0  0  0  0  0  0
   -3.5100    5.0414    2.7852 C   0  0  0  0  0  0  0  0  0  0  0  0
   -2.5056    4.2077    2.0520 C   0  0  0  0  0  0  0  0  0  0  0  0
   -1.7750    3.1966    2.8897 C   0  0  0  0  0  0  0  0  0  0  0  0
   -0.7585    2.4139    2.0581 C   0  0  0  0  0  0  0  0  0  0  0  0
    0.2893    3.2998    1.4366 C   0  0  0  0  0  0  0  0  0  0  0  0
    1.2200    2.3876    0.6580 C   0  0  0  0  0  0  0  0  0  0  0  0
    2.3263    3.1755   -0.0175 C   0  0  0  0  0  0  0  0  0  0  0  0
    3.2530    2.2827   -0.7906 C   0  0  0  0  0  0  0  0  0  0  0  0
    2.5851    1.4989   -1.8848 C   0  0  0  0  0  0  0  0  0  0  0  0
    3.6390    0.6503   -2.5713 C   0  0  0  0  0  0  0  0  0  0  0  0
    3.0561   -0.1716   -3.6866 C   0  0  0  0  0  0  0  0  0  0  0  0
    1.9891   -1.1258   -3.2602 C   0  0  0  0  0  0  0  0  0  0  0  0
    2.4827   -2.1156   -2.2581 C   0  0  0  0  0  0  0  0  0  0  0  0
    1.4223   -3.0952   -1.8083 C   0  0  0  0  0  0  0  0  0  0  0  0
    2.0039   -4.0749   -0.7848 C   0  0  0  0  0  0  0  0  0  0  0  0
    0.9130   -5.0561   -0.3443 C   0  0  0  0  0  0  0  0  0  0  0  0
    0.4311   -5.8037   -1.5671 C   0  0  0  0  0  0  0  0  0  0  0  0
   -4.1890    3.3561    4.3645 O   0  0  0  0  0  0  0  0  0  0  0  0
   -5.3106    3.5936    2.3918 O   0  0  0  0  0  0  0  0  0  0  0  0
   -5.3381    4.9428    3.9201 H   0  0  0  0  0  0  0  0  0  0  0  0
   -3.9637    5.7564    2.0372 H   0  0  0  0  0  0  0  0  0  0  0  0
   -2.9541    5.6779    3.5176 H   0  0  0  0  0  0  0  0  0  0  0  0
   -1.7294    4.9253    1.6648 H   0  0  0  0  0  0  0  0  0  0  0  0
   -2.9606    3.7014    1.1653 H   0  0  0  0  0  0  0  0  0  0  0  0
   -1.3302    3.6341    3.7895 H   0  0  0  0  0  0  0  0  0  0  0  0
   -2.5120    2.3995    3.2173 H   0  0  0  0  0  0  0  0  0  0  0  0
   -1.3309    1.8925    1.2777 H   0  0  0  0  0  0  0  0  0  0  0  0
   -0.2908    1.6498    2.7111 H   0  0  0  0  0  0  0  0  0  0  0  0
    0.8423    3.8477    2.2158 H   0  0  0  0  0  0  0  0  0  0  0  0
   -0.2296    3.9807    0.7064 H   0  0  0  0  0  0  0  0  0  0  0  0
    1.6173    1.6255    1.3473 H   0  0  0  0  0  0  0  0  0  0  0  0
    0.6292    1.9045   -0.1272 H   0  0  0  0  0  0  0  0  0  0  0  0
    1.9193    3.9611   -0.6525 H   0  0  0  0  0  0  0  0  0  0  0  0
    2.9206    3.6166    0.8095 H   0  0  0  0  0  0  0  0  0  0  0  0
    3.7517    1.5826   -0.0739 H   0  0  0  0  0  0  0  0  0  0  0  0
    4.0688    2.9123   -1.1943 H   0  0  0  0  0  0  0  0  0  0  0  0
    2.1824    2.1896   -2.6482 H   0  0  0  0  0  0  0  0  0  0  0  0
    1.7522    0.9018   -1.5017 H   0  0  0  0  0  0  0  0  0  0  0  0
    4.1780    0.0799   -1.8166 H   0  0  0  0  0  0  0  0  0  0  0  0
    4.3628    1.3516   -3.0463 H   0  0  0  0  0  0  0  0  0  0  0  0
    3.8746   -0.7125   -4.1885 H   0  0  0  0  0  0  0  0  0  0  0  0
    2.6496    0.5386   -4.4315 H   0  0  0  0  0  0  0  0  0  0  0  0
    1.1103   -0.5695   -2.9095 H   0  0  0  0  0  0  0  0  0  0  0  0
    1.6667   -1.6646   -4.1814 H   0  0  0  0  0  0  0  0  0  0  0  0
    2.7578   -1.5252   -1.3414 H   0  0  0  0  0  0  0  0  0  0  0  0
    3.3996   -2.6037   -2.5816 H   0  0  0  0  0  0  0  0  0  0  0  0
    0.5917   -2.5847   -1.2809 H   0  0  0  0  0  0  0  0  0  0  0  0
    0.9980   -3.6533   -2.6570 H   0  0  0  0  0  0  0  0  0  0  0  0
    2.8235   -4.6467   -1.2373 H   0  0  0  0  0  0  0  0  0  0  0  0
    2.3518   -3.5271    0.1074 H   0  0  0  0  0  0  0  0  0  0  0  0
    1.3530   -5.7299    0.3975 H   0  0  0  0  0  0  0  0  0  0  0  0
    0.0470   -4.5062    0.0597 H   0  0  0  0  0  0  0  0  0  0  0  0
    0.2753   -6.8767   -1.3270 H   0  0  0  0  0  0  0  0  0  0  0  0
   -0.4970   -5.3719   -1.9499 H   0  0  0  0  0  0  0  0  0  0  0  0
    1.2037   -5.7545   -2.3539 H   0  0  0  0  0  0  0  0  0  0  0  0
   -4.6896    2.4932    4.2726 H   0  0  0  0  0  0  0  0  0  0  0  0
   -4.7767    2.7985    2.0958 H   0  0  0  0  0  0  0  0  0  0  0  0
  1  2  1  0
  1 19  1  0
  1 20  1  0
  2  3  1  0
  3  4  1  0
  4  5  1  0
  5  6  1  0
  6  7  1  0
  7  8  1  0
  8  9  1  0
  9 10  1  0
 10 11  1  0
 11 12  1  0
 12 13  1  0
 13 14  1  0
 14 15  1  0
 15 16  1  0
 16 17  1  0
 17 18  1  0
  1 21  1  0
  2 22  1  0
  2 23  1  0
  3 24  1  0
  3 25  1  0
  4 26  1  0
  4 27  1  0
  5 28  1  0
  5 29  1  0
  6 30  1  0
  6 31  1  0
  7 32  1  0
  7 33  1  0
  8 34  1  0
  8 35  1  0
  9 36  1  0
  9 37  1  0
 10 38  1  0
 10 39  1  0
 11 40  1  0
 11 41  1  0
 12 42  1  0
 12 43  1  0
 13 44  1  0
 13 45  1  0
 14 46  1  0
 14 47  1  0
 15 48  1  0
 15 49  1  0
 16 50  1  0
 16 51  1  0
 17 52  1  0
 17 53  1  0
 18 54  1  0
 18 55  1  0
 18 56  1  0
 19 57  1  0
 20 58  1  0
M  END
$$$$
FATTY ACID-BINDING PROTEIN
     RDKit          3D

 58 57  0  0  0  0  0  0  0  0999 V2000
   -2.5680    3.2476   -2.0579 C   0  0  0  0  0  0  0  0  0  0  0  0
   -2.5619    1.7425   -2.2377 C   0  0  0  0  0  0  0  0  0  0  0  0
   -3.8639    1.1738   -1.7191 C   0  0  0  0  0  0  0  0  0  0  0  0
   -3.9135   -0.3258   -1.8732 C   0  0  0  0  0  0  0  0  0  0  0  0
   -2.8105   -1.0284   -1.1282 C   0  0  0  0  0  0  0  0  0  0  0  0
   -2.8365   -0.7753    0.3441 C   0  0  0  0  0  0  0  0  0  0  0  0
   -1.6796   -1.5317    1.0046 C   0  0  0  0  0  0  0  0  0  0  0  0
   -1.7208   -1.2625    2.5097 C   0  0  0  0  0  0  0  0  0  0  0  0
   -0.6085   -1.9961    3.1677 C   0  0  0  0  0  0  0  0  0  0  0  0
    0.7754   -1.5738    2.6362 C   0  0  0  0  0  0  0  0  0  0  0  0
    1.0181   -0.1371    2.8609 C   0  0  0  0  0  0  0  0  0  0  0  0
    2.2604    0.4985    2.3927 C   0  0  0  0  0  0  0  0  0  0  0  0
    3.5648    0.0656    2.9188 C   0  0  0  0  0  0  0  0  0  0  0  0
    4.0025   -1.3400    2.6662 C   0  0  0  0  0  0  0  0  0  0  0  0
    4.0445   -1.6476    1.1911 C   0  0  0  0  0  0  0  0  0  0  0  0
    4.4714   -3.0359    0.8765 C   0  0  0  0  0  0  0  0  0  0  0  0
    5.8267   -3.4095    1.3552 C   0  0  0  0  0  0  0  0  0  0  0  0
    6.9340   -2.5657    0.7972 C   0  0  0  0  0  0  0  0  0  0  0  0
   -3.6351    3.8294   -2.7660 O   0  0  0  0  0  0  0  0  0  0  0  0
   -1.4020    3.8132   -2.5415 O   0  0  0  0  0  0  0  0  0  0  0  0
   -2.6462    3.4958   -0.9810 H   0  0  0  0  0  0  0  0  0  0  0  0
   -1.6883    1.3608   -1.6741 H   0  0  0  0  0  0  0  0  0  0  0  0
   -2.4149    1.5378   -3.3077 H   0  0  0  0  0  0  0  0  0  0  0  0
   -4.6864    1.5944   -2.3346 H   0  0  0  0  0  0  0  0  0  0  0  0
   -3.9646    1.4284   -0.6521 H   0  0  0  0  0  0  0  0  0  0  0  0
   -4.9094   -0.6929   -1.5970 H   0  0  0  0  0  0  0  0  0  0  0  0
   -3.7818   -0.5306   -2.9554 H   0  0  0  0  0  0  0  0  0  0  0  0
   -1.8551   -0.7270   -1.6048 H   0  0  0  0  0  0  0  0  0  0  0  0
   -2.9142   -2.1088   -1.3150 H   0  0  0  0  0  0  0  0  0  0  0  0
   -3.7940   -1.1030    0.7536 H   0  0  0  0  0  0  0  0  0  0  0  0
   -2.7241    0.3128    0.5185 H   0  0  0  0  0  0  0  0  0  0  0  0
   -0.7357   -1.1538    0.5707 H   0  0  0  0  0  0  0  0  0  0  0  0
   -1.7580   -2.6076    0.7736 H   0  0  0  0  0  0  0  0  0  0  0  0
   -2.6795   -1.6805    2.9346 H   0  0  0  0  0  0  0  0  0  0  0  0
   -1.7794   -0.1867    2.6825 H   0  0  0  0  0  0  0  0  0  0  0  0
   -0.6888   -3.0685    2.8650 H   0  0  0  0  0  0  0  0  0  0  0  0
   -0.5885   -1.8801    4.2576 H   0  0  0  0  0  0  0  0  0  0  0  0
    1.4664   -2.1957    3.2818 H   0  0  0  0  0  0  0  0  0  0  0  0
    0.8342   -1.8898    1.5909 H   0  0  0  0  0  0  0  0  0  0  0  0
    0.1001    0.4213    2.4681 H   0  0  0  0  0  0  0  0  0  0  0  0
    0.9227    0.0967    3.9806 H   0  0  0  0  0  0  0  0  0  0  0  0
    2.3183    0.4896    1.2414 H   0  0  0  0  0  0  0  0  0  0  0  0
    2.1610    1.6107    2.5954 H   0  0  0  0  0  0  0  0  0  0  0  0
    3.5624    0.2817    4.0379 H   0  0  0  0  0  0  0  0  0  0  0  0
    4.3452    0.7634    2.4790 H   0  0  0  0  0  0  0  0  0  0  0  0
    3.6230   -2.0953    3.3224 H   0  0  0  0  0  0  0  0  0  0  0  0
    5.1429   -1.2913    2.9424 H   0  0  0  0  0  0  0  0  0  0  0  0
    3.0360   -1.4782    0.7671 H   0  0  0  0  0  0  0  0  0  0  0  0
    4.6993   -0.9159    0.6740 H   0  0  0  0  0  0  0  0  0  0  0  0
    4.3808   -3.1815   -0.2189 H   0  0  0  0  0  0  0  0  0  0  0  0
    3.7611   -3.7755    1.3242 H   0  0  0  0  0  0  0  0  0  0  0  0
    5.8487   -3.5136    2.4631 H   0  0  0  0  0  0  0  0  0  0  0  0
    6.0187   -4.4549    0.9760 H   0  0  0  0  0  0  0  0  0  0  0  0
    6.5944   -1.7294    0.1623 H   0  0  0  0  0  0  0  0  0  0  0  0
    7.6708   -3.1340    0.1865 H   0  0  0  0  0  0  0  0  0  0  0  0
    7.5052   -2.1854    1.6883 H   0  0  0  0  0  0  0  0  0  0  0  0
   -3.3394    4.6120   -3.3173 H   0  0  0  0  0  0  0  0  0  0  0  0
   -0.5808    3.3645   -2.2253 H   0  0  0  0  0  0  0  0  0  0  0  0
  1  2  1  0
  1 19  1  0
  1 20  1  0
  2  3  1  0
  3  4  1  0
  4  5  1  0
  5  6  1  0
  6  7  1  0
  7  8  1  0
  8  9  1  0
  9 10  1  0
 10 11  1  0
 11 12  1  0
 12 13  1  0
 13 14  1  0
 14 15  1  0
 15 16  1  0
 16 17  1  0
 17 18  1  0
  1 21  1  0
  2 22  1  0
  2 23  1  0
  3 24  1  0
  3 25  1  0
  4 26  1  0
  4 27  1  0
  5 28  1  0
  5 29  1  0
  6 30  1  0
  6 31  1  0
  7 32  1  0
  7 33  1  0
  8 34  1  0
  8 35  1  0
  9 36  1  0
  9 37  1  0
 10 38  1  0
 10 39  1  0
 11 40  1  0
 11 41  1  0
 12 42  1  0
 12 43  1  0
 13 44  1  0
 13 45  1  0
 14 46  1  0
 14 47  1  0
 15 48  1  0
 15 49  1  0
 16 50  1  0
 16 51  1  0
 17 52  1  0
 17 53  1  0
 18 54  1  0
 18 55  1  0
 18 56  1  0
 19 57  1  0
 20 58  1  0
M  END
$$$$
FATTY ACID-BINDING PROTEIN
     RDKit          3D

 58 57  0  0  0  0  0  0  0  0999 V2000
    1.2242    6.9861   -0.4580 C   0  0  0  0  0  0  0  0  0  0  0  0
    1.2583    6.0248   -1.6112 C   0  0  0  0  0  0  0  0  0  0  0  0
    1.4638    4.6110   -1.1663 C   0  0  0  0  0  0  0  0  0  0  0  0
    2.7391    4.4170   -0.4392 C   0  0  0  0  0  0  0  0  0  0  0  0
    2.9658    2.9695   -0.0209 C   0  0  0  0  0  0  0  0  0  0  0  0
    3.0203    2.0065   -1.1676 C   0  0  0  0  0  0  0  0  0  0  0  0
    3.2543    0.6139   -0.6236 C   0  0  0  0  0  0  0  0  0  0  0  0
    2.2039    0.1299    0.3077 C   0  0  0  0  0  0  0  0  0  0  0  0
    0.8237    0.0631   -0.2977 C   0  0  0  0  0  0  0  0  0  0  0  0
   -0.0922   -0.4458    0.7951 C   0  0  0  0  0  0  0  0  0  0  0  0
   -1.5178   -0.5631    0.3260 C   0  0  0  0  0  0  0  0  0  0  0  0
   -1.6983   -1.4935   -0.8211 C   0  0  0  0  0  0  0  0  0  0  0  0
   -1.2608   -2.9266   -0.5153 C   0  0  0  0  0  0  0  0  0  0  0  0
   -2.0100   -3.5244    0.6015 C   0  0  0  0  0  0  0  0  0  0  0  0
   -1.6437   -4.9154    0.9488 C   0  0  0  0  0  0  0  0  0  0  0  0
   -0.3237   -5.2651    1.4754 C   0  0  0  0  0  0  0  0  0  0  0  0
    0.9146   -5.0164    0.7201 C   0  0  0  0  0  0  0  0  0  0  0  0
    1.0035   -5.6422   -0.6393 C   0  0  0  0  0  0  0  0  0  0  0  0
    0.2144    6.6829    0.4509 O   0  0  0  0  0  0  0  0  0  0  0  0
    2.4191    7.1090    0.1942 O   0  0  0  0  0  0  0  0  0  0  0  0
    0.9003    7.9903   -0.8948 H   0  0  0  0  0  0  0  0  0  0  0  0
    2.0656    6.3189   -2.3487 H   0  0  0  0  0  0  0  0  0  0  0  0
    0.2768    6.0844   -2.1798 H   0  0  0  0  0  0  0  0  0  0  0  0
    1.4485    3.9118   -2.0507 H   0  0  0  0  0  0  0  0  0  0  0  0
    0.5653    4.3744   -0.5127 H   0  0  0  0  0  0  0  0  0  0  0  0
    2.7409    4.9613    0.5561 H   0  0  0  0  0  0  0  0  0  0  0  0
    3.6125    4.8064   -0.9900 H   0  0  0  0  0  0  0  0  0  0  0  0
    2.1913    2.6648    0.7179 H   0  0  0  0  0  0  0  0  0  0  0  0
    3.9219    2.9806    0.5412 H   0  0  0  0  0  0  0  0  0  0  0  0
    3.9549    2.2434   -1.7557 H   0  0  0  0  0  0  0  0  0  0  0  0
    2.2021    2.0582   -1.8786 H   0  0  0  0  0  0  0  0  0  0  0  0
    3.3486   -0.1374   -1.4440 H   0  0  0  0  0  0  0  0  0  0  0  0
    4.2168    0.5968   -0.0718 H   0  0  0  0  0  0  0  0  0  0  0  0
    2.2224    0.7000    1.2487 H   0  0  0  0  0  0  0  0  0  0  0  0
    2.4744   -0.9144    0.5934 H   0  0  0  0  0  0  0  0  0  0  0  0
    0.7855   -0.7020   -1.1004 H   0  0  0  0  0  0  0  0  0  0  0  0
    0.4865    0.9994   -0.7398 H   0  0  0  0  0  0  0  0  0  0  0  0
    0.3146   -1.3724    1.2106 H   0  0  0  0  0  0  0  0  0  0  0  0
   -0.1204    0.2913    1.6411 H   0  0  0  0  0  0  0  0  0  0  0  0
   -2.1856   -0.8556    1.1535 H   0  0  0  0  0  0  0  0  0  0  0  0
   -1.8213    0.4426    0.0002 H   0  0  0  0  0  0  0  0  0  0  0  0
   -1.1521   -1.1920   -1.7293 H   0  0  0  0  0  0  0  0  0  0  0  0
   -2.7752   -1.5495   -1.0791 H   0  0  0  0  0  0  0  0  0  0  0  0
   -0.1770   -3.0196   -0.5480 H   0  0  0  0  0  0  0  0  0  0  0  0
   -1.6051   -3.4830   -1.4512 H   0  0  0  0  0  0  0  0  0  0  0  0
   -3.1123   -3.5725    0.2968 H   0  0  0  0  0  0  0  0  0  0  0  0
   -2.0653   -2.8564    1.5073 H   0  0  0  0  0  0  0  0  0  0  0  0
   -1.8660   -5.5701    0.0369 H   0  0  0  0  0  0  0  0  0  0  0  0
   -2.4106   -5.3609    1.6853 H   0  0  0  0  0  0  0  0  0  0  0  0
   -0.1917   -4.7196    2.4743 H   0  0  0  0  0  0  0  0  0  0  0  0
   -0.2947   -6.3511    1.8444 H   0  0  0  0  0  0  0  0  0  0  0  0
    1.7284   -5.5829    1.3220 H   0  0  0  0  0  0  0  0  0  0  0  0
    1.2830   -3.9887    0.7300 H   0  0  0  0  0  0  0  0  0  0  0  0
    0.1954   -5.3997   -1.3304 H   0  0  0  0  0  0  0  0  0  0  0  0
    1.0864   -6.7655   -0.5772 H   0  0  0  0  0  0  0  0  0  0  0  0
    1.9727   -5.3169   -1.0829 H   0  0  0  0  0  0  0  0  0  0  0  0
   -0.0866    7.4531    0.9713 H   0  0  0  0  0  0  0  0  0  0  0  0
    2.3565    7.8124    0.8670 H   0  0  0  0  0  0  0  0  0  0  0  0
  1  2  1  0
  1 19  1  0
  1 20  1  0
  2  3  1  0
  3  4  1  0
  4  5  1  0
  5  6  1  0
  6  7  1  0
  7  8  1  0
  8  9  1  0
  9 10  1  0
 10 11  1  0
 11 12  1  0
 12 13  1  0
 13 14  1  0
 14 15  1  0
 15 16  1  0
 16 17  1  0
 17 18  1  0
  1 21  1  0
  2 22  1  0
  2 23  1  0
  3 24  1  0
  3 25  1  0
  4 26  1  0
  4 27  1  0
  5 28  1  0
  5 29  1  0
  6 30  1  0
  6 31  1  0
  7 32  1  0
  7 33  1  0
  8 34  1  0
  8 35  1  0
  9 36  1  0
  9 37  1  0
 10 38  1  0
 10 39  1  0
 11 40  1  0
 11 41  1  0
 12 42  1  0
 12 43  1  0
 13 44  1  0
 13 45  1  0
 14 46  1  0
 14 47  1  0
 15 48  1  0
 15 49  1  0
 16 50  1  0
 16 51  1  0
 17 52  1  0
 17 53  1  0
 18 54  1  0
 18 55  1  0
 18 56  1  0
 19 57  1  0
 20 58  1  0
M  END
$$$$
FATTY ACID-BINDING PROTEIN
     RDKit          3D

 58 57  0  0  0  0  0  0  0  0999 V2000
   -3.3813   -1.4584    4.2114 C   0  0  0  0  0  0  0  0  0  0  0  0
   -2.2228   -0.5973    3.9538 C   0  0  0  0  0  0  0  0  0  0  0  0
   -1.1161   -0.8959    3.0732 C   0  0  0  0  0  0  0  0  0  0  0  0
   -1.1645   -1.1342    1.6282 C   0  0  0  0  0  0  0  0  0  0  0  0
   -1.8778   -2.3089    1.0683 C   0  0  0  0  0  0  0  0  0  0  0  0
   -1.7640   -2.3584   -0.4627 C   0  0  0  0  0  0  0  0  0  0  0  0
   -0.3634   -2.4854   -0.9058 C   0  0  0  0  0  0  0  0  0  0  0  0
   -0.2304   -2.5642   -2.4215 C   0  0  0  0  0  0  0  0  0  0  0  0
   -0.7768   -1.3501   -3.1055 C   0  0  0  0  0  0  0  0  0  0  0  0
   -0.1153   -0.0747   -2.7215 C   0  0  0  0  0  0  0  0  0  0  0  0
   -0.7563    1.0679   -3.4785 C   0  0  0  0  0  0  0  0  0  0  0  0
   -0.1401    2.4091   -3.1454 C   0  0  0  0  0  0  0  0  0  0  0  0
   -0.2360    2.7959   -1.7101 C   0  0  0  0  0  0  0  0  0  0  0  0
    0.3782    4.1312   -1.3821 C   0  0  0  0  0  0  0  0  0  0  0  0
    1.8549    4.1779   -1.7128 C   0  0  0  0  0  0  0  0  0  0  0  0
    2.6454    3.1509   -0.9590 C   0  0  0  0  0  0  0  0  0  0  0  0
    4.1056    3.2946   -1.3722 C   0  0  0  0  0  0  0  0  0  0  0  0
    4.2541    3.0695   -2.8636 C   0  0  0  0  0  0  0  0  0  0  0  0
   -4.1597   -0.7332    5.2127 O   0  0  0  0  0  0  0  0  0  0  0  0
   -4.2757   -1.6526    3.1536 O   0  0  0  0  0  0  0  0  0  0  0  0
   -3.2008   -2.4331    4.6842 H   0  0  0  0  0  0  0  0  0  0  0  0
   -1.8366   -0.3120    5.0155 H   0  0  0  0  0  0  0  0  0  0  0  0
   -2.5878    0.4675    3.6433 H   0  0  0  0  0  0  0  0  0  0  0  0
   -0.4125   -1.6964    3.5421 H   0  0  0  0  0  0  0  0  0  0  0  0
   -0.3908    0.0126    3.1841 H   0  0  0  0  0  0  0  0  0  0  0  0
   -0.0874   -1.2064    1.2245 H   0  0  0  0  0  0  0  0  0  0  0  0
   -1.5081   -0.1709    1.1074 H   0  0  0  0  0  0  0  0  0  0  0  0
   -1.4159   -3.2354    1.5032 H   0  0  0  0  0  0  0  0  0  0  0  0
   -2.9697   -2.3163    1.2306 H   0  0  0  0  0  0  0  0  0  0  0  0
   -2.3390   -3.2165   -0.8386 H   0  0  0  0  0  0  0  0  0  0  0  0
   -2.2861   -1.4493   -0.8170 H   0  0  0  0  0  0  0  0  0  0  0  0
    0.3636   -1.7579   -0.5280 H   0  0  0  0  0  0  0  0  0  0  0  0
    0.0015   -3.4854   -0.5448 H   0  0  0  0  0  0  0  0  0  0  0  0
   -0.7639   -3.4718   -2.7571 H   0  0  0  0  0  0  0  0  0  0  0  0
    0.8465   -2.6633   -2.6501 H   0  0  0  0  0  0  0  0  0  0  0  0
   -1.8698   -1.3044   -2.8955 H   0  0  0  0  0  0  0  0  0  0  0  0
   -0.6955   -1.4804   -4.2034 H   0  0  0  0  0  0  0  0  0  0  0  0
   -0.2788    0.1352   -1.6485 H   0  0  0  0  0  0  0  0  0  0  0  0
    0.9559   -0.1352   -2.9005 H   0  0  0  0  0  0  0  0  0  0  0  0
   -1.8554    1.0746   -3.3423 H   0  0  0  0  0  0  0  0  0  0  0  0
   -0.5660    0.8947   -4.5578 H   0  0  0  0  0  0  0  0  0  0  0  0
   -0.7530    3.1570   -3.7173 H   0  0  0  0  0  0  0  0  0  0  0  0
    0.8863    2.4912   -3.5411 H   0  0  0  0  0  0  0  0  0  0  0  0
    0.2561    2.0613   -1.0326 H   0  0  0  0  0  0  0  0  0  0  0  0
   -1.3020    2.8516   -1.4144 H   0  0  0  0  0  0  0  0  0  0  0  0
   -0.1205    4.9952   -1.8226 H   0  0  0  0  0  0  0  0  0  0  0  0
    0.3156    4.2191   -0.2586 H   0  0  0  0  0  0  0  0  0  0  0  0
    2.2151    5.1702   -1.3580 H   0  0  0  0  0  0  0  0  0  0  0  0
    2.0287    4.1412   -2.8022 H   0  0  0  0  0  0  0  0  0  0  0  0
    2.5854    3.3746    0.1196 H   0  0  0  0  0  0  0  0  0  0  0  0
    2.3735    2.1062   -1.1995 H   0  0  0  0  0  0  0  0  0  0  0  0
    4.5595    4.2272   -1.0246 H   0  0  0  0  0  0  0  0  0  0  0  0
    4.6438    2.4460   -0.8821 H   0  0  0  0  0  0  0  0  0  0  0  0
    5.2318    2.6156   -3.1154 H   0  0  0  0  0  0  0  0  0  0  0  0
    4.2136    4.0559   -3.3516 H   0  0  0  0  0  0  0  0  0  0  0  0
    3.4686    2.3702   -3.2202 H   0  0  0  0  0  0  0  0  0  0  0  0
   -4.1292    0.2209    4.9688 H   0  0  0  0  0  0  0  0  0  0  0  0
   -5.1672   -1.8395    3.5570 H   0  0  0  0  0  0  0  0  0  0  0  0
  1  2  1  0
  1 19  1  0
  1 20  1  0
  2  3  1  0
  3  4  1  0
  4  5  1  0
  5  6  1  0
  6  7  1  0
  7  8  1  0
  8  9  1  0
  9 10  1  0
 10 11  1  0
 11 12  1  0
 12 13  1  0
 13 14  1  0
 14 15  1  0
 15 16  1  0
 16 17  1  0
 17 18  1  0
  1 21  1  0
  2 22  1  0
  2 23  1  0
  3 24  1  0
  3 25  1  0
  4 26  1  0
  4 27  1  0
  5 28  1  0
  5 29  1  0
  6 30  1  0
  6 31  1  0
  7 32  1  0
  7 33  1  0
  8 34  1  0
  8 35  1  0
  9 36  1  0
  9 37  1  0
 10 38  1  0
 10 39  1  0
 11 40  1  0
 11 41  1  0
 12 42  1  0
 12 43  1  0
 13 44  1  0
 13 45  1  0
 14 46  1  0
 14 47  1  0
 15 48  1  0
 15 49  1  0
 16 50  1  0
 16 51  1  0
 17 52  1  0
 17 53  1  0
 18 54  1  0
 18 55  1  0
 18 56  1  0
 19 57  1  0
 20 58  1  0
M  END
$$$$
FATTY ACID-BINDING PROTEIN
     RDKit          3D

 58 57  0  0  0  0  0  0  0  0999 V2000
    3.6293    1.3167    1.5645 C   0  0  0  0  0  0  0  0  0  0  0  0
    4.7200    0.9795    0.6129 C   0  0  0  0  0  0  0  0  0  0  0  0
    4.3433    0.7838   -0.8047 C   0  0  0  0  0  0  0  0  0  0  0  0
    3.3667   -0.2990   -1.1061 C   0  0  0  0  0  0  0  0  0  0  0  0
    3.8072   -1.6589   -0.6913 C   0  0  0  0  0  0  0  0  0  0  0  0
    2.8975   -2.7841   -0.9803 C   0  0  0  0  0  0  0  0  0  0  0  0
    1.5423   -2.8010   -0.4217 C   0  0  0  0  0  0  0  0  0  0  0  0
    1.3652   -2.7729    1.0434 C   0  0  0  0  0  0  0  0  0  0  0  0
   -0.0767   -2.8163    1.5017 C   0  0  0  0  0  0  0  0  0  0  0  0
   -0.9014   -1.6459    0.9724 C   0  0  0  0  0  0  0  0  0  0  0  0
   -0.3571   -0.3341    1.4164 C   0  0  0  0  0  0  0  0  0  0  0  0
   -1.1068    0.8306    0.8903 C   0  0  0  0  0  0  0  0  0  0  0  0
   -2.5090    1.0732    1.2236 C   0  0  0  0  0  0  0  0  0  0  0  0
   -3.5785    0.1274    0.8796 C   0  0  0  0  0  0  0  0  0  0  0  0
   -3.7127   -0.2096   -0.5892 C   0  0  0  0  0  0  0  0  0  0  0  0
   -4.0000    1.0255   -1.4156 C   0  0  0  0  0  0  0  0  0  0  0  0
   -4.1258    0.6398   -2.8745 C   0  0  0  0  0  0  0  0  0  0  0  0
   -2.8695   -0.0001   -3.4229 C   0  0  0  0  0  0  0  0  0  0  0  0
    4.2291    1.4558    2.8402 O   0  0  0  0  0  0  0  0  0  0  0  0
    3.0651    2.5506    1.2550 O   0  0  0  0  0  0  0  0  0  0  0  0
    2.8776    0.5118    1.6913 H   0  0  0  0  0  0  0  0  0  0  0  0
    5.3023    0.1466    1.0536 H   0  0  0  0  0  0  0  0  0  0  0  0
    5.4349    1.8485    0.6316 H   0  0  0  0  0  0  0  0  0  0  0  0
    3.9445    1.7661   -1.1736 H   0  0  0  0  0  0  0  0  0  0  0  0
    5.2945    0.6548   -1.3894 H   0  0  0  0  0  0  0  0  0  0  0  0
    2.4033    0.0186   -0.6592 H   0  0  0  0  0  0  0  0  0  0  0  0
    3.2082   -0.3239   -2.2035 H   0  0  0  0  0  0  0  0  0  0  0  0
    4.2265   -1.6727    0.3512 H   0  0  0  0  0  0  0  0  0  0  0  0
    4.7279   -1.8645   -1.3186 H   0  0  0  0  0  0  0  0  0  0  0  0
    3.4459   -3.7278   -0.6814 H   0  0  0  0  0  0  0  0  0  0  0  0
    2.8625   -2.8798   -2.1062 H   0  0  0  0  0  0  0  0  0  0  0  0
    1.0514   -3.7555   -0.7806 H   0  0  0  0  0  0  0  0  0  0  0  0
    0.9436   -2.0221   -0.9658 H   0  0  0  0  0  0  0  0  0  0  0  0
    1.8373   -3.6687    1.5063 H   0  0  0  0  0  0  0  0  0  0  0  0
    1.8415   -1.9164    1.5581 H   0  0  0  0  0  0  0  0  0  0  0  0
   -0.1074   -2.8586    2.5913 H   0  0  0  0  0  0  0  0  0  0  0  0
   -0.4806   -3.7729    1.1115 H   0  0  0  0  0  0  0  0  0  0  0  0
   -1.8943   -1.7982    1.4278 H   0  0  0  0  0  0  0  0  0  0  0  0
   -0.8734   -1.6819   -0.1135 H   0  0  0  0  0  0  0  0  0  0  0  0
    0.7087   -0.2002    1.0252 H   0  0  0  0  0  0  0  0  0  0  0  0
   -0.2471   -0.2913    2.5376 H   0  0  0  0  0  0  0  0  0  0  0  0
   -0.4998    1.7760    1.1511 H   0  0  0  0  0  0  0  0  0  0  0  0
   -0.9274    0.7953   -0.2377 H   0  0  0  0  0  0  0  0  0  0  0  0
   -2.8251    2.1095    0.8868 H   0  0  0  0  0  0  0  0  0  0  0  0
   -2.5526    1.1815    2.3648 H   0  0  0  0  0  0  0  0  0  0  0  0
   -3.7863   -0.7151    1.5561 H   0  0  0  0  0  0  0  0  0  0  0  0
   -4.5587    0.7500    1.0539 H   0  0  0  0  0  0  0  0  0  0  0  0
   -2.8435   -0.6851   -1.0370 H   0  0  0  0  0  0  0  0  0  0  0  0
   -4.6349   -0.8513   -0.6673 H   0  0  0  0  0  0  0  0  0  0  0  0
   -3.1737    1.7686   -1.3070 H   0  0  0  0  0  0  0  0  0  0  0  0
   -4.9668    1.4946   -1.1454 H   0  0  0  0  0  0  0  0  0  0  0  0
   -4.3937    1.5663   -3.4263 H   0  0  0  0  0  0  0  0  0  0  0  0
   -4.9348   -0.1209   -2.9438 H   0  0  0  0  0  0  0  0  0  0  0  0
   -2.6930    0.3494   -4.4711 H   0  0  0  0  0  0  0  0  0  0  0  0
   -2.9941   -1.1168   -3.5270 H   0  0  0  0  0  0  0  0  0  0  0  0
   -2.0428    0.2441   -2.7549 H   0  0  0  0  0  0  0  0  0  0  0  0
    5.1806    1.7366    2.7694 H   0  0  0  0  0  0  0  0  0  0  0  0
    3.6435    3.1003    0.6829 H   0  0  0  0  0  0  0  0  0  0  0  0
  1  2  1  0
  1 19  1  0
  1 20  1  0
  2  3  1  0
  3  4  1  0
  4  5  1  0
  5  6  1  0
  6  7  1  0
  7  8  1  0
  8  9  1  0
  9 10  1  0
 10 11  1  0
 11 12  1  0
 12 13  1  0
 13 14  1  0
 14 15  1  0
 15 16  1  0
 16 17  1  0
 17 18  1  0
  1 21  1  0
  2 22  1  0
  2 23  1  0
  3 24  1  0
  3 25  1  0
  4 26  1  0
  4 27  1  0
  5 28  1  0
  5 29  1  0
  6 30  1  0
  6 31  1  0
  7 32  1  0
  7 33  1  0
  8 34  1  0
  8 35  1  0
  9 36  1  0
  9 37  1  0
 10 38  1  0
 10 39  1  0
 11 40  1  0
 11 41  1  0
 12 42  1  0
 12 43  1  0
 13 44  1  0
 13 45  1  0
 14 46  1  0
 14 47  1  0
 15 48  1  0
 15 49  1  0
 16 50  1  0
 16 51  1  0
 17 52  1  0
 17 53  1  0
 18 54  1  0
 18 55  1  0
 18 56  1  0
 19 57  1  0
 20 58  1  0
M  END
$$$$
FATTY ACID-BINDING PROTEIN
     RDKit          3D

 58 57  0  0  0  0  0  0  0  0999 V2000
    2.0297   -3.9643    4.2084 C   0  0  0  0  0  0  0  0  0  0  0  0
    0.6412   -3.6071    3.7948 C   0  0  0  0  0  0  0  0  0  0  0  0
    0.6635   -2.7654    2.5583 C   0  0  0  0  0  0  0  0  0  0  0  0
    1.3187   -3.5277    1.4334 C   0  0  0  0  0  0  0  0  0  0  0  0
    1.3264   -2.6570    0.1515 C   0  0  0  0  0  0  0  0  0  0  0  0
    1.9795   -3.4481   -0.9250 C   0  0  0  0  0  0  0  0  0  0  0  0
    2.1253   -2.7774   -2.2430 C   0  0  0  0  0  0  0  0  0  0  0  0
    0.9656   -2.3633   -3.0088 C   0  0  0  0  0  0  0  0  0  0  0  0
   -0.0339   -1.3995   -2.5524 C   0  0  0  0  0  0  0  0  0  0  0  0
    0.4291   -0.0478   -2.1780 C   0  0  0  0  0  0  0  0  0  0  0  0
   -0.6922    0.8382   -1.7069 C   0  0  0  0  0  0  0  0  0  0  0  0
   -1.7251    1.0248   -2.7456 C   0  0  0  0  0  0  0  0  0  0  0  0
   -2.8701    1.9153   -2.3521 C   0  0  0  0  0  0  0  0  0  0  0  0
   -2.4820    3.3022   -1.9940 C   0  0  0  0  0  0  0  0  0  0  0  0
   -1.8133    3.9563   -3.1555 C   0  0  0  0  0  0  0  0  0  0  0  0
   -1.3829    5.3729   -2.8829 C   0  0  0  0  0  0  0  0  0  0  0  0
   -0.4050    5.4893   -1.7475 C   0  0  0  0  0  0  0  0  0  0  0  0
   -0.0653    6.9632   -1.5913 C   0  0  0  0  0  0  0  0  0  0  0  0
    1.9075   -4.7445    5.3760 O   0  0  0  0  0  0  0  0  0  0  0  0
    2.7739   -2.8328    4.5159 O   0  0  0  0  0  0  0  0  0  0  0  0
    2.5414   -4.5920    3.4589 H   0  0  0  0  0  0  0  0  0  0  0  0
    0.0476   -4.5469    3.6470 H   0  0  0  0  0  0  0  0  0  0  0  0
    0.0942   -3.0834    4.6260 H   0  0  0  0  0  0  0  0  0  0  0  0
    1.2154   -1.8064    2.7287 H   0  0  0  0  0  0  0  0  0  0  0  0
   -0.3627   -2.4340    2.2560 H   0  0  0  0  0  0  0  0  0  0  0  0
    2.3784   -3.7519    1.6581 H   0  0  0  0  0  0  0  0  0  0  0  0
    0.8004   -4.4623    1.2192 H   0  0  0  0  0  0  0  0  0  0  0  0
    1.8759   -1.7557    0.4363 H   0  0  0  0  0  0  0  0  0  0  0  0
    0.2750   -2.4762   -0.0819 H   0  0  0  0  0  0  0  0  0  0  0  0
    1.4877   -4.4583   -1.0485 H   0  0  0  0  0  0  0  0  0  0  0  0
    3.0211   -3.7386   -0.5773 H   0  0  0  0  0  0  0  0  0  0  0  0
    2.8945   -1.9701   -2.0770 H   0  0  0  0  0  0  0  0  0  0  0  0
    2.7423   -3.5216   -2.8679 H   0  0  0  0  0  0  0  0  0  0  0  0
    1.3180   -2.0808   -4.0635 H   0  0  0  0  0  0  0  0  0  0  0  0
    0.3826   -3.3199   -3.2578 H   0  0  0  0  0  0  0  0  0  0  0  0
   -0.6869   -1.2224   -3.5131 H   0  0  0  0  0  0  0  0  0  0  0  0
   -0.8078   -1.7726   -1.8723 H   0  0  0  0  0  0  0  0  0  0  0  0
    0.8134    0.4723   -3.1074 H   0  0  0  0  0  0  0  0  0  0  0  0
    1.3076   -0.0247   -1.5036 H   0  0  0  0  0  0  0  0  0  0  0  0
   -0.2109    1.7712   -1.3538 H   0  0  0  0  0  0  0  0  0  0  0  0
   -1.1577    0.4088   -0.7696 H   0  0  0  0  0  0  0  0  0  0  0  0
   -2.1507    0.0082   -2.9953 H   0  0  0  0  0  0  0  0  0  0  0  0
   -1.3140    1.4062   -3.6994 H   0  0  0  0  0  0  0  0  0  0  0  0
   -3.3916    1.4397   -1.4806 H   0  0  0  0  0  0  0  0  0  0  0  0
   -3.6321    1.9486   -3.1576 H   0  0  0  0  0  0  0  0  0  0  0  0
   -1.9539    3.4092   -1.0416 H   0  0  0  0  0  0  0  0  0  0  0  0
   -3.4442    3.8714   -1.8386 H   0  0  0  0  0  0  0  0  0  0  0  0
   -2.5172    3.9955   -4.0131 H   0  0  0  0  0  0  0  0  0  0  0  0
   -0.9161    3.3987   -3.5259 H   0  0  0  0  0  0  0  0  0  0  0  0
   -2.2519    6.0231   -2.6502 H   0  0  0  0  0  0  0  0  0  0  0  0
   -0.8794    5.7982   -3.7743 H   0  0  0  0  0  0  0  0  0  0  0  0
    0.5442    4.9654   -1.9373 H   0  0  0  0  0  0  0  0  0  0  0  0
   -0.8215    5.1679   -0.7786 H   0  0  0  0  0  0  0  0  0  0  0  0
   -0.9801    7.5955   -1.5986 H   0  0  0  0  0  0  0  0  0  0  0  0
    0.5792    7.1502   -0.7113 H   0  0  0  0  0  0  0  0  0  0  0  0
    0.4929    7.2308   -2.5347 H   0  0  0  0  0  0  0  0  0  0  0  0
    1.5041   -4.2166    6.1039 H   0  0  0  0  0  0  0  0  0  0  0  0
    2.1623   -2.0641    4.6091 H   0  0  0  0  0  0  0  0  0  0  0  0
  1  2  1  0
  1 19  1  0
  1 20  1  0
  2  3  1  0
  3  4  1  0
  4  5  1  0
  5  6  1  0
  6  7  1  0
  7  8  1  0
  8  9  1  0
  9 10  1  0
 10 11  1  0
 11 12  1  0
 12 13  1  0
 13 14  1  0
 14 15  1  0
 15 16  1  0
 16 17  1  0
 17 18  1  0
  1 21  1  0
  2 22  1  0
  2 23  1  0
  3 24  1  0
  3 25  1  0
  4 26  1  0
  4 27  1  0
  5 28  1  0
  5 29  1  0
  6 30  1  0
  6 31  1  0
  7 32  1  0
  7 33  1  0
  8 34  1  0
  8 35  1  0
  9 36  1  0
  9 37  1  0
 10 38  1  0
 10 39  1  0
 11 40  1  0
 11 41  1  0
 12 42  1  0
 12 43  1  0
 13 44  1  0
 13 45  1  0
 14 46  1  0
 14 47  1  0
 15 48  1  0
 15 49  1  0
 16 50  1  0
 16 51  1  0
 17 52  1  0
 17 53  1  0
 18 54  1  0
 18 55  1  0
 18 56  1  0
 19 57  1  0
 20 58  1  0
M  END
$$$$
FATTY ACID-BINDING PROTEIN
     RDKit          3D

 58 57  0  0  0  0  0  0  0  0999 V2000
    2.2663    1.6815    1.4899 C   0  0  0  0  0  0  0  0  0  0  0  0
    2.1575    2.9690    2.1917 C   0  0  0  0  0  0  0  0  0  0  0  0
    0.9658    3.3763    2.9522 C   0  0  0  0  0  0  0  0  0  0  0  0
    0.4387    2.7192    4.1127 C   0  0  0  0  0  0  0  0  0  0  0  0
   -0.1933    1.3907    4.2369 C   0  0  0  0  0  0  0  0  0  0  0  0
   -1.4417    1.1078    3.5398 C   0  0  0  0  0  0  0  0  0  0  0  0
   -1.6717    1.0309    2.1229 C   0  0  0  0  0  0  0  0  0  0  0  0
   -1.0287   -0.0646    1.3079 C   0  0  0  0  0  0  0  0  0  0  0  0
   -1.4756   -1.4163    1.7879 C   0  0  0  0  0  0  0  0  0  0  0  0
   -0.9026   -2.6254    1.1878 C   0  0  0  0  0  0  0  0  0  0  0  0
   -0.9944   -2.9271   -0.2420 C   0  0  0  0  0  0  0  0  0  0  0  0
   -0.3146   -2.0635   -1.2348 C   0  0  0  0  0  0  0  0  0  0  0  0
   -0.5837   -2.6262   -2.6413 C   0  0  0  0  0  0  0  0  0  0  0  0
    0.0689   -1.8218   -3.7095 C   0  0  0  0  0  0  0  0  0  0  0  0
   -0.4051   -0.3886   -3.7498 C   0  0  0  0  0  0  0  0  0  0  0  0
    0.3514    0.2714   -4.8893 C   0  0  0  0  0  0  0  0  0  0  0  0
    0.0046    1.7142   -5.0797 C   0  0  0  0  0  0  0  0  0  0  0  0
    0.8588    2.1963   -6.2589 C   0  0  0  0  0  0  0  0  0  0  0  0
    3.5690    1.6582    0.8503 O   0  0  0  0  0  0  0  0  0  0  0  0
    2.2974    0.5984    2.3236 O   0  0  0  0  0  0  0  0  0  0  0  0
    1.5349    1.6392    0.6606 H   0  0  0  0  0  0  0  0  0  0  0  0
    3.0243    2.9855    2.9510 H   0  0  0  0  0  0  0  0  0  0  0  0
    2.4488    3.8269    1.4635 H   0  0  0  0  0  0  0  0  0  0  0  0
    1.1765    4.4849    3.2543 H   0  0  0  0  0  0  0  0  0  0  0  0
    0.1705    3.5857    2.1497 H   0  0  0  0  0  0  0  0  0  0  0  0
    1.3115    2.7033    4.8993 H   0  0  0  0  0  0  0  0  0  0  0  0
   -0.2310    3.4951    4.7036 H   0  0  0  0  0  0  0  0  0  0  0  0
   -0.4539    1.3591    5.3840 H   0  0  0  0  0  0  0  0  0  0  0  0
    0.5750    0.5964    4.2260 H   0  0  0  0  0  0  0  0  0  0  0  0
   -2.1810    1.9067    3.9296 H   0  0  0  0  0  0  0  0  0  0  0  0
   -1.9168    0.1913    4.0583 H   0  0  0  0  0  0  0  0  0  0  0  0
   -1.4777    1.9697    1.5531 H   0  0  0  0  0  0  0  0  0  0  0  0
   -2.7893    0.8936    1.9583 H   0  0  0  0  0  0  0  0  0  0  0  0
   -0.0106    0.0178    1.0325 H   0  0  0  0  0  0  0  0  0  0  0  0
   -1.5946    0.0520    0.3127 H   0  0  0  0  0  0  0  0  0  0  0  0
   -2.6180   -1.4098    1.7140 H   0  0  0  0  0  0  0  0  0  0  0  0
   -1.3384   -1.3831    2.9114 H   0  0  0  0  0  0  0  0  0  0  0  0
    0.1697   -2.8022    1.5277 H   0  0  0  0  0  0  0  0  0  0  0  0
   -1.4229   -3.5035    1.7231 H   0  0  0  0  0  0  0  0  0  0  0  0
   -0.5991   -3.9938   -0.3766 H   0  0  0  0  0  0  0  0  0  0  0  0
   -2.0946   -3.0891   -0.5260 H   0  0  0  0  0  0  0  0  0  0  0  0
    0.8124   -2.2087   -1.1263 H   0  0  0  0  0  0  0  0  0  0  0  0
   -0.4656   -1.0078   -1.2002 H   0  0  0  0  0  0  0  0  0  0  0  0
   -1.6754   -2.6420   -2.8541 H   0  0  0  0  0  0  0  0  0  0  0  0
   -0.1620   -3.6431   -2.6285 H   0  0  0  0  0  0  0  0  0  0  0  0
   -0.2167   -2.2653   -4.6992 H   0  0  0  0  0  0  0  0  0  0  0  0
    1.1870   -1.8800   -3.6731 H   0  0  0  0  0  0  0  0  0  0  0  0
   -1.4749   -0.3088   -4.0060 H   0  0  0  0  0  0  0  0  0  0  0  0
   -0.2680    0.1573   -2.8123 H   0  0  0  0  0  0  0  0  0  0  0  0
    0.0785   -0.2995   -5.8090 H   0  0  0  0  0  0  0  0  0  0  0  0
    1.4466    0.1952   -4.7665 H   0  0  0  0  0  0  0  0  0  0  0  0
    0.3787    2.3042   -4.2012 H   0  0  0  0  0  0  0  0  0  0  0  0
   -1.0571    1.9211   -5.2257 H   0  0  0  0  0  0  0  0  0  0  0  0
    1.8646    1.7252   -6.0955 H   0  0  0  0  0  0  0  0  0  0  0  0
    0.9285    3.2859   -6.2921 H   0  0  0  0  0  0  0  0  0  0  0  0
    0.4285    1.7244   -7.1621 H   0  0  0  0  0  0  0  0  0  0  0  0
    3.5300    0.8574    0.2821 H   0  0  0  0  0  0  0  0  0  0  0  0
    2.7928   -0.1776    1.9937 H   0  0  0  0  0  0  0  0  0  0  0  0
  1  2  1  0
  1 19  1  0
  1 20  1  0
  2  3  1  0
  3  4  1  0
  4  5  1  0
  5  6  1  0
  6  7  1  0
  7  8  1  0
  8  9  1  0
  9 10  1  0
 10 11  1  0
 11 12  1  0
 12 13  1  0
 13 14  1  0
 14 15  1  0
 15 16  1  0
 16 17  1  0
 17 18  1  0
  1 21  1  0
  2 22  1  0
  2 23  1  0
  3 24  1  0
  3 25  1  0
  4 26  1  0
  4 27  1  0
  5 28  1  0
  5 29  1  0
  6 30  1  0
  6 31  1  0
  7 32  1  0
  7 33  1  0
  8 34  1  0
  8 35  1  0
  9 36  1  0
  9 37  1  0
 10 38  1  0
 10 39  1  0
 11 40  1  0
 11 41  1  0
 12 42  1  0
 12 43  1  0
 13 44  1  0
 13 45  1  0
 14 46  1  0
 14 47  1  0
 15 48  1  0
 15 49  1  0
 16 50  1  0
 16 51  1  0
 17 52  1  0
 17 53  1  0
 18 54  1  0
 18 55  1  0
 18 56  1  0
 19 57  1  0
 20 58  1  0
M  END
$$$$
FATTY ACID-BINDING PROTEIN
     RDKit          3D

 58 57  0  0  0  0  0  0  0  0999 V2000
    1.6070    2.0430    2.3829 C   0  0  0  0  0  0  0  0  0  0  0  0
    1.2493    0.7863    3.1015 C   0  0  0  0  0  0  0  0  0  0  0  0
    1.6641   -0.4824    2.3989 C   0  0  0  0  0  0  0  0  0  0  0  0
    3.1433   -0.4893    2.2298 C   0  0  0  0  0  0  0  0  0  0  0  0
    3.6787   -1.7056    1.5531 C   0  0  0  0  0  0  0  0  0  0  0  0
    3.0966   -1.8879    0.1248 C   0  0  0  0  0  0  0  0  0  0  0  0
    3.4339   -0.7204   -0.7123 C   0  0  0  0  0  0  0  0  0  0  0  0
    3.0504   -0.6610   -2.1265 C   0  0  0  0  0  0  0  0  0  0  0  0
    1.6555   -0.6937   -2.5774 C   0  0  0  0  0  0  0  0  0  0  0  0
    0.7952   -1.8572   -2.3090 C   0  0  0  0  0  0  0  0  0  0  0  0
   -0.5698   -1.5764   -2.9658 C   0  0  0  0  0  0  0  0  0  0  0  0
   -1.2263   -0.3487   -2.4221 C   0  0  0  0  0  0  0  0  0  0  0  0
   -1.4920   -0.4084   -0.9300 C   0  0  0  0  0  0  0  0  0  0  0  0
   -2.1389    0.8425   -0.5084 C   0  0  0  0  0  0  0  0  0  0  0  0
   -3.3744    1.3443   -1.0900 C   0  0  0  0  0  0  0  0  0  0  0  0
   -4.7006    0.7798   -1.0772 C   0  0  0  0  0  0  0  0  0  0  0  0
   -5.0980   -0.4938   -1.6824 C   0  0  0  0  0  0  0  0  0  0  0  0
   -4.5696   -1.7833   -1.1595 C   0  0  0  0  0  0  0  0  0  0  0  0
    0.9830    2.0471    1.1208 O   0  0  0  0  0  0  0  0  0  0  0  0
    1.0243    3.1249    3.0672 O   0  0  0  0  0  0  0  0  0  0  0  0
    2.6801    2.2442    2.2742 H   0  0  0  0  0  0  0  0  0  0  0  0
    1.7078    0.8018    4.1341 H   0  0  0  0  0  0  0  0  0  0  0  0
    0.1474    0.7422    3.2551 H   0  0  0  0  0  0  0  0  0  0  0  0
    1.3770   -1.3339    3.0353 H   0  0  0  0  0  0  0  0  0  0  0  0
    1.1163   -0.5334    1.4345 H   0  0  0  0  0  0  0  0  0  0  0  0
    3.4719    0.4556    1.7874 H   0  0  0  0  0  0  0  0  0  0  0  0
    3.5877   -0.4937    3.2657 H   0  0  0  0  0  0  0  0  0  0  0  0
    3.3963   -2.5973    2.1508 H   0  0  0  0  0  0  0  0  0  0  0  0
    4.7667   -1.6893    1.5161 H   0  0  0  0  0  0  0  0  0  0  0  0
    3.6083   -2.7840   -0.2785 H   0  0  0  0  0  0  0  0  0  0  0  0
    2.0369   -2.0744    0.3378 H   0  0  0  0  0  0  0  0  0  0  0  0
    3.0379    0.1906   -0.1791 H   0  0  0  0  0  0  0  0  0  0  0  0
    4.5756   -0.6454   -0.6753 H   0  0  0  0  0  0  0  0  0  0  0  0
    3.4636    0.3410   -2.5161 H   0  0  0  0  0  0  0  0  0  0  0  0
    3.6971   -1.3754   -2.7636 H   0  0  0  0  0  0  0  0  0  0  0  0
    1.6879   -0.5920   -3.7169 H   0  0  0  0  0  0  0  0  0  0  0  0
    1.1760    0.2848   -2.2850 H   0  0  0  0  0  0  0  0  0  0  0  0
    1.1835   -2.7467   -2.8395 H   0  0  0  0  0  0  0  0  0  0  0  0
    0.5421   -2.1126   -1.2894 H   0  0  0  0  0  0  0  0  0  0  0  0
   -1.2433   -2.4349   -2.7932 H   0  0  0  0  0  0  0  0  0  0  0  0
   -0.3405   -1.3971   -4.0185 H   0  0  0  0  0  0  0  0  0  0  0  0
   -2.2611   -0.3360   -2.8838 H   0  0  0  0  0  0  0  0  0  0  0  0
   -0.7693    0.6048   -2.7323 H   0  0  0  0  0  0  0  0  0  0  0  0
   -1.9830   -1.3031   -0.6516 H   0  0  0  0  0  0  0  0  0  0  0  0
   -0.4507   -0.4537   -0.4053 H   0  0  0  0  0  0  0  0  0  0  0  0
   -2.2926    0.8419    0.6442 H   0  0  0  0  0  0  0  0  0  0  0  0
   -1.3739    1.7127   -0.5637 H   0  0  0  0  0  0  0  0  0  0  0  0
   -3.5132    2.4257   -0.6396 H   0  0  0  0  0  0  0  0  0  0  0  0
   -3.1603    1.6246   -2.2138 H   0  0  0  0  0  0  0  0  0  0  0  0
   -5.4739    1.5869   -1.4361 H   0  0  0  0  0  0  0  0  0  0  0  0
   -5.1008    0.7026    0.0272 H   0  0  0  0  0  0  0  0  0  0  0  0
   -6.2477   -0.5435   -1.7022 H   0  0  0  0  0  0  0  0  0  0  0  0
   -4.8847   -0.4927   -2.8174 H   0  0  0  0  0  0  0  0  0  0  0  0
   -5.3891   -2.5722   -1.1191 H   0  0  0  0  0  0  0  0  0  0  0  0
   -3.7689   -2.1991   -1.8038 H   0  0  0  0  0  0  0  0  0  0  0  0
   -4.2067   -1.6391   -0.1396 H   0  0  0  0  0  0  0  0  0  0  0  0
    0.0079    2.1826    1.3338 H   0  0  0  0  0  0  0  0  0  0  0  0
    1.6923    3.6704    3.5506 H   0  0  0  0  0  0  0  0  0  0  0  0
  1  2  1  0
  1 19  1  0
  1 20  1  0
  2  3  1  0
  3  4  1  0
  4  5  1  0
  5  6  1  0
  6  7  1  0
  7  8  1  0
  8  9  1  0
  9 10  1  0
 10 11  1  0
 11 12  1  0
 12 13  1  0
 13 14  1  0
 14 15  1  0
 15 16  1  0
 16 17  1  0
 17 18  1  0
  1 21  1  0
  2 22  1  0
  2 23  1  0
  3 24  1  0
  3 25  1  0
  4 26  1  0
  4 27  1  0
  5 28  1  0
  5 29  1  0
  6 30  1  0
  6 31  1  0
  7 32  1  0
  7 33  1  0
  8 34  1  0
  8 35  1  0
  9 36  1  0
  9 37  1  0
 10 38  1  0
 10 39  1  0
 11 40  1  0
 11 41  1  0
 12 42  1  0
 12 43  1  0
 13 44  1  0
 13 45  1  0
 14 46  1  0
 14 47  1  0
 15 48  1  0
 15 49  1  0
 16 50  1  0
 16 51  1  0
 17 52  1  0
 17 53  1  0
 18 54  1  0
 18 55  1  0
 18 56  1  0
 19 57  1  0
 20 58  1  0
M  END
$$$$
FATTY ACID-BINDING PROTEIN
     RDKit          3D

 58 57  0  0  0  0  0  0  0  0999 V2000
   -3.4015    2.5146   -3.3723 C   0  0  0  0  0  0  0  0  0  0  0  0
   -2.4696    2.0217   -2.3250 C   0  0  0  0  0  0  0  0  0  0  0  0
   -1.0676    2.6311   -2.5167 C   0  0  0  0  0  0  0  0  0  0  0  0
   -0.4471    2.3040   -3.8127 C   0  0  0  0  0  0  0  0  0  0  0  0
    0.9192    2.7893   -4.1303 C   0  0  0  0  0  0  0  0  0  0  0  0
    2.0924    2.2613   -3.4191 C   0  0  0  0  0  0  0  0  0  0  0  0
    2.0973    2.3976   -1.9597 C   0  0  0  0  0  0  0  0  0  0  0  0
    3.4241    1.9405   -1.3294 C   0  0  0  0  0  0  0  0  0  0  0  0
    3.7231    0.5206   -1.6218 C   0  0  0  0  0  0  0  0  0  0  0  0
    2.7007   -0.4706   -1.1271 C   0  0  0  0  0  0  0  0  0  0  0  0
    2.5214   -0.4143    0.3509 C   0  0  0  0  0  0  0  0  0  0  0  0
    1.4840   -1.4275    0.8422 C   0  0  0  0  0  0  0  0  0  0  0  0
    0.1524   -1.2262    0.2741 C   0  0  0  0  0  0  0  0  0  0  0  0
   -0.8706   -2.2094    0.6862 C   0  0  0  0  0  0  0  0  0  0  0  0
   -1.3797   -2.3582    2.0439 C   0  0  0  0  0  0  0  0  0  0  0  0
   -0.4371   -2.6910    3.1258 C   0  0  0  0  0  0  0  0  0  0  0  0
   -1.2162   -2.9281    4.4621 C   0  0  0  0  0  0  0  0  0  0  0  0
   -2.1844   -4.0569    4.3017 C   0  0  0  0  0  0  0  0  0  0  0  0
   -4.6957    1.9733   -3.2032 O   0  0  0  0  0  0  0  0  0  0  0  0
   -3.4950    3.8984   -3.2966 O   0  0  0  0  0  0  0  0  0  0  0  0
   -3.0341    2.1537   -4.3689 H   0  0  0  0  0  0  0  0  0  0  0  0
   -2.7997    2.2372   -1.2941 H   0  0  0  0  0  0  0  0  0  0  0  0
   -2.4017    0.9012   -2.4005 H   0  0  0  0  0  0  0  0  0  0  0  0
   -1.3276    3.7647   -2.5054 H   0  0  0  0  0  0  0  0  0  0  0  0
   -0.4912    2.5276   -1.6029 H   0  0  0  0  0  0  0  0  0  0  0  0
   -0.4937    1.2000   -4.0480 H   0  0  0  0  0  0  0  0  0  0  0  0
   -1.1607    2.7207   -4.6126 H   0  0  0  0  0  0  0  0  0  0  0  0
    0.9154    3.9395   -4.1219 H   0  0  0  0  0  0  0  0  0  0  0  0
    1.0886    2.6150   -5.2644 H   0  0  0  0  0  0  0  0  0  0  0  0
    2.9929    2.8300   -3.8505 H   0  0  0  0  0  0  0  0  0  0  0  0
    2.2024    1.1828   -3.7566 H   0  0  0  0  0  0  0  0  0  0  0  0
    1.3677    1.6210   -1.5677 H   0  0  0  0  0  0  0  0  0  0  0  0
    1.7590    3.3682   -1.6212 H   0  0  0  0  0  0  0  0  0  0  0  0
    3.4224    2.2398   -0.2727 H   0  0  0  0  0  0  0  0  0  0  0  0
    4.1925    2.5576   -1.8400 H   0  0  0  0  0  0  0  0  0  0  0  0
    3.8871    0.4294   -2.7165 H   0  0  0  0  0  0  0  0  0  0  0  0
    4.6885    0.2195   -1.1663 H   0  0  0  0  0  0  0  0  0  0  0  0
    1.7939   -0.3477   -1.7349 H   0  0  0  0  0  0  0  0  0  0  0  0
    3.0451   -1.5230   -1.3531 H   0  0  0  0  0  0  0  0  0  0  0  0
    2.2476    0.5892    0.7353 H   0  0  0  0  0  0  0  0  0  0  0  0
    3.4767   -0.7654    0.8007 H   0  0  0  0  0  0  0  0  0  0  0  0
    1.5113   -1.3186    1.9264 H   0  0  0  0  0  0  0  0  0  0  0  0
    1.9058   -2.4378    0.6265 H   0  0  0  0  0  0  0  0  0  0  0  0
    0.1488   -1.1077   -0.8459 H   0  0  0  0  0  0  0  0  0  0  0  0
   -0.2670   -0.2070    0.5982 H   0  0  0  0  0  0  0  0  0  0  0  0
   -0.5143   -3.2801    0.3832 H   0  0  0  0  0  0  0  0  0  0  0  0
   -1.7912   -2.1363   -0.0000 H   0  0  0  0  0  0  0  0  0  0  0  0
   -2.0352   -1.4679    2.3335 H   0  0  0  0  0  0  0  0  0  0  0  0
   -2.1312   -3.2329    2.0028 H   0  0  0  0  0  0  0  0  0  0  0  0
    0.1806   -3.5377    2.8984 H   0  0  0  0  0  0  0  0  0  0  0  0
    0.1051   -1.7382    3.3982 H   0  0  0  0  0  0  0  0  0  0  0  0
   -1.7093   -1.9737    4.7141 H   0  0  0  0  0  0  0  0  0  0  0  0
   -0.4232   -3.1604    5.2013 H   0  0  0  0  0  0  0  0  0  0  0  0
   -3.1377   -3.7082    3.8614 H   0  0  0  0  0  0  0  0  0  0  0  0
   -1.6854   -4.8552    3.7106 H   0  0  0  0  0  0  0  0  0  0  0  0
   -2.4471   -4.4121    5.3224 H   0  0  0  0  0  0  0  0  0  0  0  0
   -5.1060    2.2907   -2.3747 H   0  0  0  0  0  0  0  0  0  0  0  0
   -3.5285    4.1491   -2.3499 H   0  0  0  0  0  0  0  0  0  0  0  0
  1  2  1  0
  1 19  1  0
  1 20  1  0
  2  3  1  0
  3  4  1  0
  4  5  1  0
  5  6  1  0
  6  7  1  0
  7  8  1  0
  8  9  1  0
  9 10  1  0
 10 11  1  0
 11 12  1  0
 12 13  1  0
 13 14  1  0
 14 15  1  0
 15 16  1  0
 16 17  1  0
 17 18  1  0
  1 21  1  0
  2 22  1  0
  2 23  1  0
  3 24  1  0
  3 25  1  0
  4 26  1  0
  4 27  1  0
  5 28  1  0
  5 29  1  0
  6 30  1  0
  6 31  1  0
  7 32  1  0
  7 33  1  0
  8 34  1  0
  8 35  1  0
  9 36  1  0
  9 37  1  0
 10 38  1  0
 10 39  1  0
 11 40  1  0
 11 41  1  0
 12 42  1  0
 12 43  1  0
 13 44  1  0
 13 45  1  0
 14 46  1  0
 14 47  1  0
 15 48  1  0
 15 49  1  0
 16 50  1  0
 16 51  1  0
 17 52  1  0
 17 53  1  0
 18 54  1  0
 18 55  1  0
 18 56  1  0
 19 57  1  0
 20 58  1  0
M  END
$$$$
