@<TRIPOS>MOLECULE
/Users/xuhangdai/Desktop/Projects/OptimalTransport/extra_bio_ligands_boltz_af3/boltz_results_1ln1_DLP/1ln1_DLP_model_3_chainB.pdb
 54 53 0 0 0
SMALL
GASTEIGER

@<TRIPOS>ATOM
      1 C101        5.6530    1.8540   -9.2110 C.3     0  LIG0        0.0000
      2 C110        6.0190    3.2820   -9.1510 C.3     0  LIG0        0.0000
      3 C118        5.1560    4.0560   -8.2410 C.3     0  LIG0        0.0003
      4 C114        5.4310    5.4990   -8.3650 C.3     0  LIG0        0.0047
      5 C106        5.0750    6.2480   -7.1480 C.3     0  LIG0        0.0257
      6  C95        5.4830    7.6380   -7.3040 C.2     0  LIG0       -0.0304
      7  C91        6.1160    8.3480   -6.4360 C.2     0  LIG0       -0.0260
      8  C99        6.4100    8.0430   -5.0610 C.3     0  LIG0        0.0513
      9  C93        7.7790    7.7170   -4.9500 C.2     0  LIG0       -0.0260
     10  C97        8.5420    7.7270   -3.9200 C.2     0  LIG0       -0.0304
     11 C108        8.2540    7.8800   -2.5370 C.3     0  LIG0        0.0257
     12 C116        9.2950    7.1690   -1.7990 C.3     0  LIG0        0.0047
     13 C122        8.8410    5.9010   -1.2380 C.3     0  LIG0        0.0003
     14 C124        8.6730    4.8800   -2.2920 C.3     0  LIG0        0.0000
     15 C120        9.2990    3.6260   -1.9430 C.3     0  LIG0        0.0006
     16 C112        8.8940    2.5900   -2.8760 C.3     0  LIG0        0.0116
     17 C104        8.6690    1.3250   -2.1630 C.3     0  LIG0        0.1096
     18  C89        7.2690    0.8990   -2.3000 C.2     0  LIG0        0.3171
     19  O81        6.8430    0.5100   -3.3310 O.2     0  LIG0       -0.2501
     20  O85        6.5310    0.9420   -1.1930 O.3     0  LIG0       -0.4444
     21 C126        5.1920    0.4830   -1.2390 C.3     0  LIG0        0.2543
     22 C132        4.3370    1.3930   -0.4100 C.3     0  LIG0        0.2420
     23 C127        2.9290    0.8510   -0.3030 C.3     0  LIG0        0.1964
     24  O88        2.7860    0.3590    0.9690 O.3     0  LIG0       -0.3101
     25 P134        1.4000   -0.0370    1.5550 P.3     0  LIG0        0.2140
     26  O83        0.5300   -0.5630    0.5130 O.2     0  LIG0       -0.5172
     27  O84        1.6490   -0.9230    2.6860 O.3     0  LIG0       -0.4373
     28  O87        0.7400    1.2820    2.1010 O.3     0  LIG0       -0.3163
     29 C103        1.4760    2.2240    2.7280 C.3     0  LIG0        0.1271
     30 C131        0.5890    3.2110    3.3880 C.3     0  LIG0       -0.0402
     31 N133        0.6370    4.5530    2.8400 N.4     0  LIG0        0.3874
     32 C128        1.9830    5.1030    2.9550 C.3     0  LIG0       -0.0959
     33 C129        0.2700    4.5480    1.4120 C.3     0  LIG0       -0.0959
     34 C130       -0.2820    5.3980    3.5390 C.3     0  LIG0       -0.0959
     35  O86        4.2910    2.6810   -0.9480 O.3     0  LIG0       -0.4457
     36  C90        4.6690    3.7250   -0.1460 C.2     0  LIG0        0.3171
     37  O82        4.8750    3.5470    1.0070 O.2     0  LIG0       -0.2501
     38 C105        4.8280    5.0740   -0.7610 C.3     0  LIG0        0.1096
     39 C113        3.7320    5.4670   -1.6660 C.3     0  LIG0        0.0116
     40 C121        4.0410    4.9960   -3.0350 C.3     0  LIG0        0.0006
     41 C125        2.8480    5.0390   -3.9270 C.3     0  LIG0        0.0000
     42 C123        3.0380    4.0960   -5.0720 C.3     0  LIG0        0.0003
     43 C117        1.8150    3.4180   -5.5080 C.3     0  LIG0        0.0047
     44 C109        1.7520    2.0160   -5.1470 C.3     0  LIG0        0.0257
     45  C98        2.8770    1.3200   -5.5960 C.2     0  LIG0       -0.0304
     46  C94        3.3360    0.1900   -5.3150 C.2     0  LIG0       -0.0260
     47 C100        2.9680   -0.7530   -4.3710 C.3     0  LIG0        0.0513
     48  C92        3.5810   -1.9890   -4.7420 C.2     0  LIG0       -0.0260
     49  C96        3.4740   -3.1310   -4.2150 C.2     0  LIG0       -0.0304
     50 C107        2.8120   -3.5410   -2.9970 C.3     0  LIG0        0.0257
     51 C115        2.4990   -4.9840   -3.0760 C.3     0  LIG0        0.0047
     52 C119        1.6590   -5.4310   -1.9480 C.3     0  LIG0        0.0003
     53 C111        0.9050   -6.6520   -2.2680 C.3     0  LIG0        0.0000
     54 C102       -0.0120   -7.0670   -1.1620 C.3     0  LIG0        0.0000
@<TRIPOS>BOND
     1     1     2    1
     2     2     3    1
     3     4     3    1
     4     4     5    1
     5     6     5    1
     6     6     7    2
     7     7     8    1
     8    45    46    2
     9    45    44    1
    10    43    44    1
    11    43    42    1
    12    46    47    1
    13    42    41    1
    14     8     9    1
    15     9    10    2
    16    48    47    1
    17    48    49    2
    18    49    50    1
    19    41    40    1
    20    10    11    1
    21    19    18    2
    22    51    50    1
    23    51    52    1
    24    40    39    1
    25    16    17    1
    26    16    15    1
    27    11    12    1
    28    18    17    1
    29    18    20    1
    30    14    15    1
    31    14    13    1
    32    53    52    1
    33    53    54    1
    34    12    13    1
    35    39    38    1
    36    21    20    1
    37    21    22    1
    38    35    22    1
    39    35    36    1
    40    38    36    1
    41    22    23    1
    42    23    24    1
    43    36    37    2
    44    26    25    2
    45    24    25    1
    46    33    31    1
    47    25    28    1
    48    25    27    1
    49    28    29    1
    50    29    30    1
    51    31    32    1
    52    31    30    1
    53    31    34    1
