@<TRIPOS>MOLECULE
/Users/xuhangdai/Desktop/Projects/OptimalTransport/extra_bio_ligands_boltz_af3/boltz_results_1ln1_DLP/1ln1_DLP_model_45_chainB.pdb
 54 53 0 0 0
SMALL
GASTEIGER

@<TRIPOS>ATOM
      1 C101       -7.2800   -6.5670    7.9940 C.3     0  LIG0        0.0000
      2 C110       -7.5720   -5.3560    7.1670 C.3     0  LIG0        0.0000
      3 C118       -8.9190   -5.3770    6.6090 C.3     0  LIG0        0.0003
      4 C114       -9.2450   -4.1780    5.8290 C.3     0  LIG0        0.0047
      5 C106      -10.4840   -4.3190    5.0480 C.3     0  LIG0        0.0257
      6  C95      -10.6410   -3.2280    4.0560 C.2     0  LIG0       -0.0304
      7  C91      -10.8500   -3.4770    2.7840 C.2     0  LIG0       -0.0260
      8  C99      -10.8950   -4.8250    2.2570 C.3     0  LIG0        0.0513
      9  C93      -10.5670   -4.8430    0.8740 C.2     0  LIG0       -0.0260
     10  C97      -10.5530   -6.0760    0.2730 C.2     0  LIG0       -0.0304
     11 C108      -10.2670   -6.1540   -1.1120 C.3     0  LIG0        0.0257
     12 C116       -9.1400   -7.0800   -1.3510 C.3     0  LIG0        0.0047
     13 C122       -7.8640   -6.3620   -1.4250 C.3     0  LIG0        0.0003
     14 C124       -6.6750   -7.0190   -0.8600 C.3     0  LIG0        0.0000
     15 C120       -6.8790   -8.0490    0.1410 C.3     0  LIG0        0.0006
     16 C112       -5.9570   -7.9180    1.2630 C.3     0  LIG0        0.0116
     17 C104       -4.5740   -8.3190    0.9240 C.3     0  LIG0        0.1096
     18  C89       -3.6160   -7.4620    1.6580 C.2     0  LIG0        0.3171
     19  O81       -3.3910   -7.6390    2.8050 O.2     0  LIG0       -0.2501
     20  O85       -3.0270   -6.4940    0.9430 O.3     0  LIG0       -0.4444
     21 C126       -2.1220   -5.6090    1.5740 C.3     0  LIG0        0.2543
     22 C132       -2.0510   -4.3550    0.7560 C.3     0  LIG0        0.2420
     23 C127       -0.9500   -3.4430    1.2480 C.3     0  LIG0        0.1964
     24  O88       -0.0270   -3.3520    0.2240 O.3     0  LIG0       -0.3101
     25 P134        0.9770   -2.1590    0.1610 P.3     0  LIG0        0.2140
     26  O83        1.4130   -1.7850    1.5080 O.3     0  LIG0       -0.4373
     27  O84        2.0330   -2.5150   -0.7870 O.2     0  LIG0       -0.5172
     28  O87        0.1920   -0.9360   -0.4380 O.3     0  LIG0       -0.3163
     29 C103       -0.5760   -1.1110   -1.5360 C.3     0  LIG0        0.1271
     30 C131       -0.7580    0.1900   -2.2240 C.3     0  LIG0       -0.0402
     31 N133       -2.1520    0.5800   -2.4140 N.4     0  LIG0        0.3874
     32 C128       -2.8690   -0.4450   -3.1850 C.3     0  LIG0       -0.0959
     33 C129       -2.8170    0.7240   -1.1030 C.3     0  LIG0       -0.0959
     34 C130       -2.2090    1.8340   -3.1070 C.3     0  LIG0       -0.0959
     35  O86       -3.2590   -3.6420    0.8020 O.3     0  LIG0       -0.4457
     36  C90       -3.9400   -3.4830   -0.3800 C.2     0  LIG0        0.3171
     37  O82       -3.5770   -4.0430   -1.3580 O.2     0  LIG0       -0.2501
     38 C105       -5.1450   -2.5830   -0.3970 C.3     0  LIG0        0.1096
     39 C113       -6.1660   -2.9580    0.5980 C.3     0  LIG0        0.0116
     40 C121       -5.7680   -2.4340    1.9130 C.3     0  LIG0        0.0006
     41 C125       -6.9080   -2.1940    2.8260 C.3     0  LIG0        0.0000
     42 C123       -6.5980   -2.5590    4.2450 C.3     0  LIG0        0.0000
     43 C117       -5.4260   -1.8580    4.8300 C.3     0  LIG0        0.0000
     44 C109       -4.8290   -2.6070    5.9660 C.3     0  LIG0        0.0000
     45  C98       -3.4680   -2.8880    5.6800 C.3     0  LIG0        0.0003
     46  C94       -3.0470   -4.1820    5.6520 C.3     0  LIG0        0.0047
     47 C100       -1.6470   -4.3470    5.5960 C.3     0  LIG0        0.0257
     48  C92       -1.2750   -5.7560    5.4600 C.2     0  LIG0       -0.0307
     49  C96       -0.0200   -6.1340    5.4210 C.2     0  LIG0       -0.0307
     50 C107        1.1430   -5.2060    5.5210 C.3     0  LIG0        0.0257
     51 C115        2.4140   -5.9700    5.4140 C.3     0  LIG0        0.0047
     52 C119        3.5750   -5.0820    5.1140 C.3     0  LIG0        0.0003
     53 C111        4.4030   -4.8090    6.2950 C.3     0  LIG0        0.0000
     54 C102        5.6820   -4.0980    5.9430 C.3     0  LIG0        0.0000
@<TRIPOS>BOND
     1    32    31    1
     2    34    31    1
     3    31    30    1
     4    31    33    1
     5    30    29    1
     6    29    28    1
     7    13    12    1
     8    13    14    1
     9    37    36    2
    10    12    11    1
    11    11    10    1
    12    14    15    1
    13    27    25    2
    14    28    25    1
    15    38    36    1
    16    38    39    1
    17    36    35    1
    18    15    16    1
    19    25    24    1
    20    25    26    1
    21    24    23    1
    22    10     9    2
    23    39    40    1
    24    22    35    1
    25    22    23    1
    26    22    21    1
    27     9     8    1
    28    17    16    1
    29    17    18    1
    30    20    21    1
    31    20    18    1
    32    18    19    2
    33    40    41    1
    34     8     7    1
    35     7     6    2
    36    41    42    1
    37     6     5    1
    38    42    43    1
    39    43    44    1
    40     5     4    1
    41    52    51    1
    42    52    53    1
    43    51    50    1
    44    49    48    2
    45    49    50    1
    46    48    47    1
    47    47    46    1
    48    46    45    1
    49    45    44    1
    50     4     3    1
    51    54    53    1
    52     3     2    1
    53     2     1    1
