@<TRIPOS>MOLECULE
/Users/xuhangdai/Desktop/Projects/OptimalTransport/extra_bio_ligands_boltz_af3/boltz_results_1ln1_DLP/1ln1_DLP_model_5_chainB.pdb
 54 53 0 0 0
SMALL
GASTEIGER

@<TRIPOS>ATOM
      1 C101        4.7200   -5.9410   -7.7400 C.3     0  LIG0        0.0000
      2 C110        3.7930   -7.0490   -8.0570 C.3     0  LIG0        0.0000
      3 C118        2.7140   -7.1760   -7.0540 C.3     0  LIG0        0.0003
      4 C114        1.8820   -8.3640   -7.3390 C.3     0  LIG0        0.0047
      5 C106        0.5530   -8.2120   -6.7370 C.3     0  LIG0        0.0257
      6  C95       -0.2880   -9.3610   -7.0830 C.2     0  LIG0       -0.0304
      7  C91       -1.5070   -9.2250   -7.5030 C.2     0  LIG0       -0.0260
      8  C99       -2.1790   -7.9660   -7.7300 C.3     0  LIG0        0.0513
      9  C93       -3.1260   -8.1580   -8.7870 C.2     0  LIG0       -0.0260
     10  C97       -4.0750   -7.3500   -9.1610 C.2     0  LIG0       -0.0304
     11 C108       -4.5570   -6.1910   -8.4500 C.3     0  LIG0        0.0257
     12 C116       -4.9410   -5.1980   -9.4520 C.3     0  LIG0        0.0047
     13 C122       -4.5740   -3.8700   -9.0260 C.3     0  LIG0        0.0003
     14 C124       -3.1080   -3.7380   -9.0290 C.3     0  LIG0        0.0000
     15 C120       -2.7000   -2.5140   -9.6730 C.3     0  LIG0        0.0006
     16 C112       -1.2900   -2.3030   -9.4250 C.3     0  LIG0        0.0116
     17 C104       -1.0700   -0.9200   -8.9710 C.3     0  LIG0        0.1096
     18  C89       -0.4510   -0.9210   -7.6360 C.2     0  LIG0        0.3171
     19  O81        0.6410   -1.3320   -7.4600 O.2     0  LIG0       -0.2501
     20  O85       -1.1860   -0.4070   -6.6550 O.3     0  LIG0       -0.4444
     21 C126       -0.5940   -0.2570   -5.3790 C.3     0  LIG0        0.2543
     22 C132       -1.6660   -0.4460   -4.3470 C.3     0  LIG0        0.2420
     23 C127       -1.1610   -0.0440   -2.9810 C.3     0  LIG0        0.1964
     24  O88       -1.8320    1.1100   -2.6430 O.3     0  LIG0       -0.3101
     25 P134       -1.8540    1.6040   -1.1600 P.3     0  LIG0        0.2140
     26  O83       -0.5340    1.4450   -0.5560 O.3     0  LIG0       -0.4373
     27  O84       -2.4020    2.9580   -1.1510 O.2     0  LIG0       -0.5172
     28  O87       -2.8470    0.6780   -0.3720 O.3     0  LIG0       -0.3163
     29 C103       -3.9930    0.2570   -0.9460 C.3     0  LIG0        0.1271
     30 C131       -4.9350   -0.1800    0.1080 C.3     0  LIG0       -0.0402
     31 N133       -5.4060   -1.5430   -0.0300 N.4     0  LIG0        0.3874
     32 C128       -6.1700   -1.6930   -1.2710 C.3     0  LIG0       -0.0959
     33 C129       -4.2550   -2.4800   -0.0760 C.3     0  LIG0       -0.0959
     34 C130       -6.2340   -1.8830    1.0910 C.3     0  LIG0       -0.0959
     35  O86       -2.0840   -1.7820   -4.2870 O.3     0  LIG0       -0.4457
     36  C90       -3.3840   -2.0430   -4.6350 C.2     0  LIG0        0.3171
     37  O82       -4.1410   -1.1460   -4.8050 O.2     0  LIG0       -0.2501
     38 C105       -3.8180   -3.4590   -4.8110 C.3     0  LIG0        0.1096
     39 C113       -3.0980   -4.4220   -3.9720 C.3     0  LIG0        0.0116
     40 C121       -1.9470   -4.9570   -4.7300 C.3     0  LIG0        0.0006
     41 C125       -1.0820   -5.8110   -3.8600 C.3     0  LIG0        0.0000
     42 C123        0.3460   -5.6840   -4.2850 C.3     0  LIG0        0.0003
     43 C117        1.2680   -5.6430   -3.1380 C.3     0  LIG0        0.0047
     44 C109        2.5460   -4.9830   -3.4950 C.3     0  LIG0        0.0257
     45  C98        2.4450   -3.6050   -3.2140 C.2     0  LIG0       -0.0304
     46  C94        2.9580   -2.7370   -4.1070 C.2     0  LIG0       -0.0260
     47 C100        3.0070   -1.3910   -3.7530 C.3     0  LIG0        0.0513
     48  C92        3.4750   -0.5910   -4.8840 C.2     0  LIG0       -0.0260
     49  C96        3.7460    0.6630   -4.7710 C.2     0  LIG0       -0.0304
     50 C107        3.5700    1.4250   -3.5160 C.3     0  LIG0        0.0257
     51 C115        4.4080    2.6470   -3.5320 C.3     0  LIG0        0.0047
     52 C119        4.1800    3.4410   -2.3050 C.3     0  LIG0        0.0003
     53 C111        5.2790    4.3790   -2.0320 C.3     0  LIG0        0.0000
     54 C102        5.0550    5.1370   -0.7500 C.3     0  LIG0        0.0000
@<TRIPOS>BOND
     1    15    16    1
     2    15    14    1
     3    12    13    1
     4    12    11    1
     5    16    17    1
     6    10     9    2
     7    10    11    1
     8    14    13    1
     9    17    18    1
    10     9     8    1
    11     2     1    1
    12     2     3    1
    13     8     7    1
    14    18    19    2
    15    18    20    1
    16     7     6    2
    17     4     3    1
    18     4     5    1
    19     6     5    1
    20    20    21    1
    21    21    22    1
    22    48    49    2
    23    48    47    1
    24    38    36    1
    25    38    39    1
    26    37    36    2
    27    49    50    1
    28    40    39    1
    29    40    41    1
    30    36    35    1
    31    22    35    1
    32    22    23    1
    33    42    41    1
    34    42    43    1
    35    46    47    1
    36    46    45    2
    37    51    50    1
    38    51    52    1
    39    44    45    1
    40    44    43    1
    41    23    24    1
    42    24    25    1
    43    52    53    1
    44    53    54    1
    45    32    31    1
    46    25    27    2
    47    25    26    1
    48    25    28    1
    49    29    28    1
    50    29    30    1
    51    33    31    1
    52    31    30    1
    53    31    34    1
