@<TRIPOS>MOLECULE
/Users/xuhangdai/Desktop/Projects/OptimalTransport/extra_bio_ligands_boltz_af3/boltz_results_1ln1_DLP/1ln1_DLP_model_33_chainB.pdb
 54 53 0 0 0
SMALL
GASTEIGER

@<TRIPOS>ATOM
      1 C101       -5.9830   -9.7980   -1.6440 C.3     0  LIG0        0.0000
      2 C110       -6.6430  -10.1590   -0.3660 C.3     0  LIG0        0.0000
      3 C118       -6.6630   -9.0270    0.5830 C.3     0  LIG0        0.0003
      4 C114       -7.3330   -9.4270    1.8500 C.3     0  LIG0        0.0047
      5 C106       -7.6540   -8.2200    2.6240 C.3     0  LIG0        0.0257
      6  C95       -8.4380   -8.5780    3.8330 C.2     0  LIG0       -0.0307
      7  C91       -9.4260   -7.7950    4.1870 C.2     0  LIG0       -0.0307
      8  C99       -9.9020   -6.8140    3.2370 C.3     0  LIG0        0.0257
      9  C93      -10.7030   -5.8300    3.8930 C.3     0  LIG0        0.0047
     10  C97      -11.4110   -5.0620    3.0090 C.3     0  LIG0        0.0003
     11 C108      -11.7210   -3.7310    3.3490 C.3     0  LIG0        0.0000
     12 C116      -12.4060   -3.1420    2.1940 C.3     0  LIG0        0.0000
     13 C122      -11.4600   -2.4120    1.3290 C.3     0  LIG0        0.0000
     14 C124      -10.7530   -3.3620    0.4390 C.3     0  LIG0        0.0000
     15 C120      -10.2950   -2.7020   -0.7720 C.3     0  LIG0        0.0006
     16 C112       -9.6540   -3.6730   -1.6240 C.3     0  LIG0        0.0116
     17 C104       -9.0300   -2.9790   -2.7620 C.3     0  LIG0        0.1096
     18  C89       -7.5570   -2.9280   -2.5550 C.2     0  LIG0        0.3171
     19  O81       -6.8560   -3.8270   -2.8740 O.2     0  LIG0       -0.2501
     20  O85       -7.0780   -1.7920   -2.0310 O.3     0  LIG0       -0.4444
     21 C126       -5.6650   -1.6400   -1.9430 C.3     0  LIG0        0.2543
     22 C132       -5.3720   -0.8680   -0.6900 C.3     0  LIG0        0.2420
     23 C127       -3.8770   -0.6130   -0.5520 C.3     0  LIG0        0.1964
     24  O88       -3.6750    0.7220   -0.8620 O.3     0  LIG0       -0.3101
     25 P134       -2.3240    1.4200   -0.5000 P.3     0  LIG0        0.2140
     26  O83       -1.1960    0.5230   -0.7740 O.3     0  LIG0       -0.4373
     27  O84       -2.2950    2.7150   -1.1790 O.2     0  LIG0       -0.5172
     28  O87       -2.3670    1.6880    1.0490 O.3     0  LIG0       -0.3163
     29 C103       -3.4210    2.4050    1.5680 C.3     0  LIG0        0.1271
     30 C131       -3.0630    2.9040    2.9200 C.3     0  LIG0       -0.0402
     31 N133       -3.6360    2.1440    4.0240 N.4     0  LIG0        0.3874
     32 C128       -5.1040    2.1420    3.9450 C.3     0  LIG0       -0.0959
     33 C129       -3.1670    0.7290    3.9860 C.3     0  LIG0       -0.0959
     34 C130       -3.2300    2.7290    5.2760 C.3     0  LIG0       -0.0959
     35  O86       -5.8070   -1.5920    0.4270 O.3     0  LIG0       -0.4457
     36  C90       -6.5650   -0.9320    1.3560 C.2     0  LIG0        0.3171
     37  O82       -6.6430    0.2580    1.3440 O.2     0  LIG0       -0.2501
     38 C105       -7.3000   -1.7610    2.3710 C.3     0  LIG0        0.1096
     39 C113       -6.3980   -2.6630    3.1340 C.3     0  LIG0        0.0116
     40 C121       -6.0870   -3.8520    2.2970 C.3     0  LIG0        0.0006
     41 C125       -5.3460   -4.9080    3.0590 C.3     0  LIG0        0.0000
     42 C123       -4.9400   -6.0200    2.1130 C.3     0  LIG0        0.0000
     43 C117       -3.5130   -5.9320    1.7260 C.3     0  LIG0        0.0000
     44 C109       -3.2830   -6.5410    0.4040 C.3     0  LIG0        0.0000
     45  C98       -2.9240   -5.4800   -0.4580 C.3     0  LIG0        0.0003
     46  C94       -3.3480   -5.5420   -1.7350 C.3     0  LIG0        0.0047
     47 C100       -2.7120   -4.6050   -2.5560 C.3     0  LIG0        0.0257
     48  C92       -3.2490   -4.6680   -3.9150 C.2     0  LIG0       -0.0307
     49  C96       -2.6970   -3.9730   -4.8650 C.2     0  LIG0       -0.0307
     50 C107       -1.5210   -3.0900   -4.6270 C.3     0  LIG0        0.0257
     51 C115       -0.8800   -2.7560   -5.9250 C.3     0  LIG0        0.0047
     52 C119        0.3160   -1.9120   -5.6950 C.3     0  LIG0        0.0003
     53 C111        1.1330   -1.7780   -6.9230 C.3     0  LIG0        0.0000
     54 C102        2.3540   -0.9210   -6.6890 C.3     0  LIG0        0.0000
@<TRIPOS>BOND
     1    53    54    1
     2    53    52    1
     3    51    52    1
     4    51    50    1
     5    49    50    1
     6    49    48    2
     7    48    47    1
     8    19    18    2
     9    17    18    1
    10    17    16    1
    11    47    46    1
    12    18    20    1
    13    20    21    1
    14    21    22    1
    15    46    45    1
    16     1     2    1
    17    16    15    1
    18    27    25    2
    19    24    23    1
    20    24    25    1
    21    26    25    1
    22    15    14    1
    23    22    23    1
    24    22    35    1
    25    25    28    1
    26    45    44    1
    27     2     3    1
    28    44    43    1
    29    35    36    1
    30    14    13    1
    31     3     4    1
    32    28    29    1
    33    13    12    1
    34    37    36    2
    35    36    38    1
    36    29    30    1
    37    43    42    1
    38     4     5    1
    39    42    41    1
    40    12    11    1
    41    40    41    1
    42    40    39    1
    43    38    39    1
    44     5     6    1
    45    30    31    1
    46    10    11    1
    47    10     9    1
    48     8     9    1
    49     8     7    1
    50     6     7    2
    51    32    31    1
    52    33    31    1
    53    31    34    1
