@<TRIPOS>MOLECULE
/Users/xuhangdai/Desktop/Projects/OptimalTransport/extra_bio_ligands_boltz_af3/boltz_results_1ln1_DLP/1ln1_DLP_model_9_chainB.pdb
 54 53 0 0 0
SMALL
GASTEIGER

@<TRIPOS>ATOM
      1 C101        2.4970   -0.9180   11.4340 C.3     0  LIG0        0.0000
      2 C110        1.2620   -0.2180   11.8420 C.3     0  LIG0        0.0000
      3 C118        0.9990    0.9940   11.0450 C.3     0  LIG0        0.0003
      4 C114        0.0720    1.9020   11.7500 C.3     0  LIG0        0.0047
      5 C106       -1.0380    2.3540   10.9020 C.3     0  LIG0        0.0257
      6  C95       -1.8940    3.3010   11.6430 C.2     0  LIG0       -0.0304
      7  C91       -3.2090    3.2140   11.6950 C.2     0  LIG0       -0.0260
      8  C99       -4.0190    2.0920   11.2300 C.3     0  LIG0        0.0513
      9  C93       -4.9470    2.4880   10.1630 C.2     0  LIG0       -0.0260
     10  C97       -6.0760    1.8200    9.8640 C.2     0  LIG0       -0.0304
     11 C108       -6.5290    0.6830   10.5810 C.3     0  LIG0        0.0257
     12 C116       -7.4580   -0.1650    9.8280 C.3     0  LIG0        0.0047
     13 C122       -6.8850   -1.0630    8.8130 C.3     0  LIG0        0.0003
     14 C124       -5.4340   -1.3430    8.9310 C.3     0  LIG0        0.0000
     15 C120       -5.1430   -2.7150    9.3320 C.3     0  LIG0        0.0006
     16 C112       -3.7520   -3.0300    9.0360 C.3     0  LIG0        0.0116
     17 C104       -3.6440   -4.1090    8.0260 C.3     0  LIG0        0.1096
     18  C89       -2.5470   -3.8280    7.0710 C.2     0  LIG0        0.3171
     19  O81       -1.4140   -3.9500    7.3800 O.2     0  LIG0       -0.2501
     20  O85       -2.9220   -3.4610    5.8420 O.3     0  LIG0       -0.4444
     21 C126       -1.9300   -3.1360    4.8750 C.3     0  LIG0        0.2543
     22 C132       -2.4720   -2.0510    3.9970 C.3     0  LIG0        0.2420
     23 C127       -1.4950   -1.6730    2.8970 C.3     0  LIG0        0.1964
     24  O88       -1.9790   -2.2190    1.7230 O.3     0  LIG0       -0.3101
     25 P134       -1.4290   -1.7770    0.3300 P.3     0  LIG0        0.2140
     26  O83        0.0180   -1.5920    0.3820 O.3     0  LIG0       -0.4373
     27  O84       -1.9070   -2.7430   -0.6600 O.2     0  LIG0       -0.5172
     28  O87       -2.0790   -0.3860   -0.0040 O.3     0  LIG0       -0.3163
     29 C103       -3.3850   -0.1350    0.2800 C.3     0  LIG0        0.1271
     30 C131       -3.8580    1.0260   -0.5100 C.3     0  LIG0       -0.0402
     31 N133       -4.2580    2.1860    0.2760 N.4     0  LIG0        0.3874
     32 C128       -5.3970    1.8430    1.1330 C.3     0  LIG0       -0.0959
     33 C129       -3.1490    2.6330    1.1410 C.3     0  LIG0       -0.0959
     34 C130       -4.6230    3.2620   -0.5980 C.3     0  LIG0       -0.0959
     35  O86       -2.7610   -0.9190    4.7560 O.3     0  LIG0       -0.4457
     36  C90       -4.0320   -0.4080    4.6910 C.2     0  LIG0        0.3171
     37  O82       -4.7810   -0.7660    3.8440 O.2     0  LIG0       -0.2501
     38 C105       -4.4380    0.5940    5.7350 C.3     0  LIG0        0.1096
     39 C113       -3.5710    1.7810    5.8140 C.3     0  LIG0        0.0116
     40 C121       -2.2520    1.3990    6.3630 C.3     0  LIG0        0.0006
     41 C125       -1.4810    2.5400    6.9280 C.3     0  LIG0        0.0000
     42 C123       -0.1400    2.0750    7.4530 C.3     0  LIG0        0.0000
     43 C117        0.9640    2.0790    6.4480 C.3     0  LIG0        0.0000
     44 C109        1.3710    0.7610    5.9490 C.3     0  LIG0        0.0000
     45  C98        1.8720   -0.0940    6.9910 C.3     0  LIG0        0.0003
     46  C94        2.0400   -1.3940    6.8670 C.3     0  LIG0        0.0047
     47 C100        2.0650   -2.0730    5.6050 C.3     0  LIG0        0.0257
     48  C92        1.8550   -3.5110    5.8020 C.2     0  LIG0       -0.0307
     49  C96        2.2590   -4.4430    4.9740 C.2     0  LIG0       -0.0307
     50 C107        3.0340   -4.2000    3.7400 C.3     0  LIG0        0.0257
     51 C115        3.5370   -5.4710    3.1600 C.3     0  LIG0        0.0047
     52 C119        3.7890   -5.3300    1.6970 C.3     0  LIG0        0.0003
     53 C111        4.8430   -6.2310    1.2120 C.3     0  LIG0        0.0000
     54 C102        5.0210   -6.1430   -0.2820 C.3     0  LIG0        0.0000
@<TRIPOS>BOND
     1    27    25    2
     2    34    31    1
     3    30    31    1
     4    30    29    1
     5    54    53    1
     6    28    29    1
     7    28    25    1
     8    31    32    1
     9    31    33    1
    10    25    26    1
    11    25    24    1
    12    53    52    1
    13    52    51    1
    14    24    23    1
    15    23    22    1
    16    51    50    1
    17    50    49    1
    18    37    36    2
    19    22    35    1
    20    22    21    1
    21    36    35    1
    22    36    38    1
    23    21    20    1
    24    49    48    2
    25    47    48    1
    26    47    46    1
    27    38    39    1
    28    39    40    1
    29    20    18    1
    30    44    43    1
    31    44    45    1
    32    40    41    1
    33    43    42    1
    34    46    45    1
    35    41    42    1
    36    18    19    2
    37    18    17    1
    38    17    16    1
    39    13    14    1
    40    13    12    1
    41    14    15    1
    42    16    15    1
    43    12    11    1
    44    10     9    2
    45    10    11    1
    46     9     8    1
    47     5     6    1
    48     5     4    1
    49     3     4    1
    50     3     2    1
    51     8     7    1
    52     1     2    1
    53     6     7    2
