@<TRIPOS>MOLECULE
/Users/xuhangdai/Desktop/Projects/OptimalTransport/extra_bio_ligands_boltz_af3/boltz_results_1ln1_DLP/1ln1_DLP_model_31_chainB.pdb
 54 53 0 0 0
SMALL
GASTEIGER

@<TRIPOS>ATOM
      1 C101        0.1110    2.0380  -10.9200 C.3     0  LIG0        0.0000
      2 C110        1.1830    1.0490  -11.1820 C.3     0  LIG0        0.0000
      3 C118        1.9820    0.7860   -9.9670 C.3     0  LIG0        0.0003
      4 C114        3.3520    0.3670  -10.3080 C.3     0  LIG0        0.0047
      5 C106        3.3860   -1.0390  -10.6960 C.3     0  LIG0        0.0257
      6  C95        4.7560   -1.5330  -10.6530 C.2     0  LIG0       -0.0304
      7  C91        5.0030   -2.7730  -10.9640 C.2     0  LIG0       -0.0260
      8  C99        3.9830   -3.6190  -11.5260 C.3     0  LIG0        0.0513
      9  C93        4.0130   -4.8850  -10.9090 C.2     0  LIG0       -0.0260
     10  C97        3.0260   -5.7410  -11.2960 C.2     0  LIG0       -0.0304
     11 C108        2.9840   -6.9950  -10.6490 C.3     0  LIG0        0.0257
     12 C116        1.6130   -7.5090  -10.6880 C.3     0  LIG0        0.0047
     13 C122        0.8470   -6.9470   -9.5730 C.3     0  LIG0        0.0003
     14 C124       -0.3200   -6.2610  -10.0880 C.3     0  LIG0        0.0000
     15 C120       -1.1570   -5.8180   -9.0030 C.3     0  LIG0        0.0006
     16 C112       -2.1500   -4.9280   -9.5150 C.3     0  LIG0        0.0116
     17 C104       -3.2080   -4.7840   -8.5420 C.3     0  LIG0        0.1096
     18  C89       -2.8010   -3.8510   -7.4940 C.2     0  LIG0        0.3171
     19  O81       -2.7710   -2.6790   -7.6730 O.2     0  LIG0       -0.2501
     20  O85       -2.4990   -4.3930   -6.3300 O.3     0  LIG0       -0.4444
     21 C126       -2.2490   -3.5420   -5.2470 C.3     0  LIG0        0.2543
     22 C132       -1.3570   -4.2530   -4.2850 C.3     0  LIG0        0.2420
     23 C127       -1.3380   -3.5200   -2.9820 C.3     0  LIG0        0.1964
     24  O88       -1.7810   -4.4000   -2.0250 O.3     0  LIG0       -0.3101
     25 P134       -1.5720   -4.0840   -0.5150 P.3     0  LIG0        0.2140
     26  O83       -1.5690   -2.6420   -0.2950 O.2     0  LIG0       -0.5172
     27  O84       -2.5510   -4.8500    0.2460 O.3     0  LIG0       -0.4373
     28  O87       -0.1580   -4.6250   -0.1520 O.3     0  LIG0       -0.3163
     29 C103        0.2150   -5.8420   -0.5870 C.3     0  LIG0        0.1271
     30 C131        1.3150   -6.3460    0.2530 C.3     0  LIG0       -0.0402
     31 N133        2.5030   -6.7200   -0.4840 N.4     0  LIG0        0.3874
     32 C128        2.1740   -7.7320   -1.4900 C.3     0  LIG0       -0.0959
     33 C129        3.0560   -5.5450   -1.1780 C.3     0  LIG0       -0.0959
     34 C130        3.4740   -7.2470    0.4230 C.3     0  LIG0       -0.0959
     35  O86       -0.0390   -4.3400   -4.7630 O.3     0  LIG0       -0.4457
     36  C90        0.4710   -5.5880   -4.9950 C.2     0  LIG0        0.3171
     37  O82       -0.1280   -6.5390   -4.6260 O.2     0  LIG0       -0.2501
     38 C105        1.7650   -5.7340   -5.7300 C.3     0  LIG0        0.1096
     39 C113        2.7460   -4.6930   -5.4740 C.3     0  LIG0        0.0116
     40 C121        2.3950   -3.5080   -6.2620 C.3     0  LIG0        0.0006
     41 C125        3.5400   -2.5530   -6.3450 C.3     0  LIG0        0.0000
     42 C123        3.0710   -1.2400   -6.8840 C.3     0  LIG0        0.0000
     43 C117        2.8590   -0.2440   -5.8200 C.3     0  LIG0        0.0000
     44 C109        1.7560    0.6730   -6.1570 C.3     0  LIG0        0.0000
     45  C98        0.7380    0.4850   -5.2130 C.3     0  LIG0        0.0003
     46  C94       -0.5220    0.5770   -5.6690 C.3     0  LIG0        0.0047
     47 C100       -1.5050    0.4660   -4.6820 C.3     0  LIG0        0.0257
     48  C92       -2.8200    0.4790   -5.3050 C.2     0  LIG0       -0.0307
     49  C96       -3.9040    0.5140   -4.6100 C.2     0  LIG0       -0.0307
     50 C107       -3.9350    0.5780   -3.1360 C.3     0  LIG0        0.0257
     51 C115       -5.3510    0.6730   -2.6930 C.3     0  LIG0        0.0047
     52 C119       -5.4580    0.7330   -1.2270 C.3     0  LIG0        0.0003
     53 C111       -5.7220    2.1130   -0.7550 C.3     0  LIG0        0.0000
     54 C102       -6.1230    2.1230    0.6900 C.3     0  LIG0        0.0000
@<TRIPOS>BOND
     1     8     7    1
     2     8     9    1
     3    10     9    2
     4    10    11    1
     5     2     1    1
     6     2     3    1
     7     7     6    2
     8     5     6    1
     9     5     4    1
    10    12    11    1
    11    12    13    1
    12     4     3    1
    13    14    13    1
    14    14    15    1
    15    16    15    1
    16    16    17    1
    17    17    18    1
    18    19    18    2
    19    18    20    1
    20    42    41    1
    21    42    43    1
    22    41    40    1
    23    20    21    1
    24    40    39    1
    25    44    43    1
    26    44    45    1
    27    38    39    1
    28    38    36    1
    29    46    45    1
    30    46    47    1
    31    48    47    1
    32    48    49    2
    33    21    22    1
    34    36    35    1
    35    36    37    2
    36    35    22    1
    37    49    50    1
    38    22    23    1
    39    50    51    1
    40    23    24    1
    41    51    52    1
    42    24    25    1
    43    32    31    1
    44    52    53    1
    45    33    31    1
    46    53    54    1
    47    29    28    1
    48    29    30    1
    49    25    26    2
    50    25    28    1
    51    25    27    1
    52    31    30    1
    53    31    34    1
