@<TRIPOS>MOLECULE
/Users/xuhangdai/Desktop/Projects/OptimalTransport/extra_bio_ligands_boltz_af3/boltz_results_1ln1_DLP/1ln1_DLP_model_43_chainB.pdb
 54 53 0 0 0
SMALL
GASTEIGER

@<TRIPOS>ATOM
      1 C101       10.7930    0.8480    7.5310 C.3     0  LIG0        0.0000
      2 C110       11.5960    2.0390    7.1910 C.3     0  LIG0        0.0000
      3 C118       11.2930    2.5710    5.8490 C.3     0  LIG0        0.0003
      4 C114       12.3190    3.5370    5.4320 C.3     0  LIG0        0.0047
      5 C106       11.8050    4.5270    4.4920 C.3     0  LIG0        0.0257
      6  C95       12.7500    5.6480    4.4140 C.2     0  LIG0       -0.0307
      7  C91       12.3650    6.9000    4.5030 C.2     0  LIG0       -0.0307
      8  C99       10.9880    7.3030    4.4380 C.3     0  LIG0        0.0257
      9  C93       10.8170    8.6670    4.7970 C.3     0  LIG0        0.0047
     10  C97        9.5310    9.0810    4.8720 C.3     0  LIG0        0.0003
     11 C108        9.1070   10.2400    5.4950 C.3     0  LIG0        0.0000
     12 C116        7.8700   10.0670    6.2760 C.3     0  LIG0        0.0000
     13 C122        7.1130    8.8720    5.8640 C.3     0  LIG0        0.0000
     14 C124        6.1760    8.3870    6.8850 C.3     0  LIG0        0.0000
     15 C120        6.8430    7.6950    7.9730 C.3     0  LIG0        0.0006
     16 C112        6.5400    6.2650    7.9890 C.3     0  LIG0        0.0116
     17 C104        5.1080    5.9630    8.1750 C.3     0  LIG0        0.1096
     18  C89        4.7790    4.7250    7.4480 C.2     0  LIG0        0.3171
     19  O81        5.2120    3.6780    7.7620 O.2     0  LIG0       -0.2501
     20  O85        3.9380    4.8750    6.4220 O.3     0  LIG0       -0.4444
     21 C126        3.6100    3.7710    5.6220 C.3     0  LIG0        0.2543
     22 C132        3.2690    4.2570    4.2420 C.3     0  LIG0        0.2420
     23 C127        2.6850    3.1480    3.4290 C.3     0  LIG0        0.1964
     24  O88        1.3620    3.4240    3.2790 O.3     0  LIG0       -0.3101
     25 P134        0.5440    2.7860    2.1120 P.3     0  LIG0        0.2140
     26  O83        0.8630    1.3660    2.0050 O.2     0  LIG0       -0.5172
     27  O84       -0.8590    3.1190    2.3310 O.3     0  LIG0       -0.4373
     28  O87        1.0040    3.4840    0.7880 O.3     0  LIG0       -0.3163
     29 C103        1.1360    4.8320    0.7090 C.3     0  LIG0        0.1271
     30 C131        1.0140    5.2650   -0.7000 C.3     0  LIG0       -0.0402
     31 N133        2.1060    6.0860   -1.1970 N.4     0  LIG0        0.3874
     32 C128        2.1880    7.3410   -0.4430 C.3     0  LIG0       -0.0959
     33 C129        3.4020    5.3620   -1.0450 C.3     0  LIG0       -0.0959
     34 C130        1.8990    6.3690   -2.5850 C.3     0  LIG0       -0.0959
     35  O86        4.3940    4.7370    3.5610 O.3     0  LIG0       -0.4457
     36  C90        4.4660    6.0650    3.2610 C.2     0  LIG0        0.3171
     37  O82        3.7050    6.8370    3.7400 O.2     0  LIG0       -0.2501
     38 C105        5.5280    6.5060    2.2930 C.3     0  LIG0        0.1096
     39 C113        6.8830    6.0820    2.6950 C.3     0  LIG0        0.0116
     40 C121        7.0890    4.6750    2.2940 C.3     0  LIG0        0.0006
     41 C125        8.4900    4.2110    2.3800 C.3     0  LIG0        0.0000
     42 C123        8.6210    3.0010    3.2490 C.3     0  LIG0        0.0000
     43 C117        8.3060    1.7280    2.5860 C.3     0  LIG0        0.0000
     44 C109        8.1000    0.6120    3.5410 C.3     0  LIG0        0.0000
     45  C98        6.7200    0.4570    3.7520 C.3     0  LIG0        0.0003
     46  C94        6.2300    0.4430    4.9990 C.3     0  LIG0        0.0047
     47 C100        4.9950   -0.1780    5.1460 C.3     0  LIG0        0.0257
     48  C92        4.4600   -0.0020    6.4940 C.2     0  LIG0       -0.0307
     49  C96        3.3840   -0.6300    6.8670 C.2     0  LIG0       -0.0307
     50 C107        2.6810   -1.5890    6.0030 C.3     0  LIG0        0.0257
     51 C115        1.5420   -2.2170    6.6970 C.3     0  LIG0        0.0047
     52 C119        0.5240   -2.6520    5.7280 C.3     0  LIG0        0.0003
     53 C111       -0.1520   -3.8790    6.1310 C.3     0  LIG0        0.0000
     54 C102       -1.2560   -4.2530    5.1850 C.3     0  LIG0        0.0000
@<TRIPOS>BOND
     1    34    31    1
     2    31    33    1
     3    31    30    1
     4    31    32    1
     5    30    29    1
     6    29    28    1
     7    28    25    1
     8    26    25    2
     9    25    27    1
    10    25    24    1
    11    38    39    1
    12    38    36    1
    13    40    41    1
    14    40    39    1
    15    41    42    1
    16    43    42    1
    17    43    44    1
    18    36    35    1
    19    36    37    2
    20    24    23    1
    21    23    22    1
    22    44    45    1
    23    35    22    1
    24    45    46    1
    25    22    21    1
    26     6     5    1
    27     6     7    2
    28     8     7    1
    29     8     9    1
    30     5     4    1
    31     9    10    1
    32    10    11    1
    33    46    47    1
    34    47    48    1
    35    54    53    1
    36     4     3    1
    37    11    12    1
    38    21    20    1
    39    52    53    1
    40    52    51    1
    41     3     2    1
    42    13    12    1
    43    13    14    1
    44    50    51    1
    45    50    49    1
    46    20    18    1
    47    48    49    2
    48    14    15    1
    49     2     1    1
    50    18    19    2
    51    18    17    1
    52    15    16    1
    53    16    17    1
