@<TRIPOS>MOLECULE
/Users/xuhangdai/Desktop/Projects/OptimalTransport/extra_bio_ligands_boltz_af3/boltz_results_1ln1_DLP/1ln1_DLP_model_42_chainB.pdb
 54 53 0 0 0
SMALL
GASTEIGER

@<TRIPOS>ATOM
      1 C101       -9.9720    4.4040    1.9060 C.3     0  LIG0        0.0000
      2 C110       -8.9330    3.7290    2.7440 C.3     0  LIG0        0.0000
      3 C118       -9.4700    3.2360    3.9980 C.3     0  LIG0        0.0000
      4 C114       -8.4530    2.7420    4.9180 C.3     0  LIG0        0.0000
      5 C106       -8.9780    2.5050    6.2610 C.3     0  LIG0        0.0000
      6  C95       -8.0160    1.9460    7.1850 C.3     0  LIG0        0.0003
      7  C91       -7.6470    2.6230    8.2910 C.3     0  LIG0        0.0047
      8  C99       -6.4160    3.3420    8.4530 C.3     0  LIG0        0.0257
      9  C93       -6.6890    4.7170    8.7380 C.2     0  LIG0       -0.0307
     10  C97       -5.8260    5.5950    9.1830 C.2     0  LIG0       -0.0307
     11 C108       -4.3820    5.4840    9.2070 C.3     0  LIG0        0.0257
     12 C116       -3.8190    6.8060    8.9020 C.3     0  LIG0        0.0047
     13 C122       -3.0400    6.8170    7.6660 C.3     0  LIG0        0.0003
     14 C124       -3.8690    6.7250    6.4510 C.3     0  LIG0        0.0000
     15 C120       -4.4360    8.0020    6.0450 C.3     0  LIG0        0.0006
     16 C112       -4.7950    7.9470    4.6300 C.3     0  LIG0        0.0116
     17 C104       -3.6660    8.4340    3.7990 C.3     0  LIG0        0.1096
     18  C89       -3.3460    7.4360    2.7630 C.2     0  LIG0        0.3171
     19  O81       -4.0940    7.2100    1.8720 O.2     0  LIG0       -0.2501
     20  O85       -2.1590    6.8320    2.8710 O.3     0  LIG0       -0.4444
     21 C126       -1.7410    5.9290    1.8640 C.3     0  LIG0        0.2543
     22 C132       -0.8270    4.9060    2.4590 C.3     0  LIG0        0.2420
     23 C127       -0.3070    3.9710    1.4020 C.3     0  LIG0        0.1964
     24  O88        0.9290    4.4200    1.0340 O.3     0  LIG0       -0.3101
     25 P134        1.9480    3.4520    0.3630 P.3     0  LIG0        0.2140
     26  O83        1.3080    2.7410   -0.7430 O.2     0  LIG0       -0.5172
     27  O84        3.1330    4.2320    0.0230 O.3     0  LIG0       -0.4373
     28  O87        2.3670    2.3780    1.4340 O.3     0  LIG0       -0.3163
     29 C103        2.8100    2.7670    2.6610 C.3     0  LIG0        0.1271
     30 C131        3.5430    1.6570    3.3110 C.3     0  LIG0       -0.0402
     31 N133        2.8980    1.0720    4.4720 N.4     0  LIG0        0.3874
     32 C128        2.7330    2.0730    5.5240 C.3     0  LIG0       -0.0959
     33 C129        1.5600    0.5580    4.1290 C.3     0  LIG0       -0.0959
     34 C130        3.6860   -0.0140    4.9750 C.3     0  LIG0       -0.0959
     35  O86       -1.4790    4.1430    3.4350 O.3     0  LIG0       -0.4457
     36  C90       -0.9530    4.1340    4.6950 C.2     0  LIG0        0.3171
     37  O82       -0.1670    4.9620    5.0150 O.2     0  LIG0       -0.2501
     38 C105       -1.3830    3.0510    5.6490 C.3     0  LIG0        0.1096
     39 C113       -2.8340    2.8800    5.7150 C.3     0  LIG0        0.0116
     40 C121       -3.2860    2.1750    4.5100 C.3     0  LIG0        0.0006
     41 C125       -4.5970    1.4940    4.6550 C.3     0  LIG0        0.0000
     42 C123       -5.4540    1.7150    3.4560 C.3     0  LIG0        0.0000
     43 C117       -5.1050    0.8850    2.2770 C.3     0  LIG0        0.0000
     44 C109       -4.6570    1.6640    1.1250 C.3     0  LIG0        0.0000
     45  C98       -5.5320    2.7310    0.8250 C.3     0  LIG0        0.0003
     46  C94       -5.2610    3.7540    0.1100 C.3     0  LIG0        0.0047
     47 C100       -4.1720    3.8950   -0.7730 C.3     0  LIG0        0.0257
     48  C92       -4.2290    5.2240   -1.3290 C.2     0  LIG0       -0.0307
     49  C96       -3.5700    5.6710   -2.3310 C.2     0  LIG0       -0.0307
     50 C107       -2.5490    4.9810   -3.1140 C.3     0  LIG0        0.0257
     51 C115       -2.3100    5.7200   -4.3710 C.3     0  LIG0        0.0047
     52 C119       -1.0660    5.2760   -5.0380 C.3     0  LIG0        0.0003
     53 C111       -1.3130    4.7910   -6.4030 C.3     0  LIG0        0.0000
     54 C102       -0.0380    4.5450   -7.1540 C.3     0  LIG0        0.0000
@<TRIPOS>BOND
     1    54    53    1
     2    53    52    1
     3    52    51    1
     4    51    50    1
     5    50    49    1
     6    49    48    2
     7    48    47    1
     8    47    46    1
     9    26    25    2
    10    27    25    1
    11    46    45    1
    12    25    24    1
    13    25    28    1
    14    45    44    1
    15    24    23    1
    16    44    43    1
    17    23    22    1
    18    28    29    1
    19    21    22    1
    20    21    20    1
    21    19    18    2
    22     1     2    1
    23    43    42    1
    24    22    35    1
    25    29    30    1
    26     2     3    1
    27    18    20    1
    28    18    17    1
    29    30    31    1
    30    35    36    1
    31    42    41    1
    32    17    16    1
    33     3     4    1
    34    33    31    1
    35    31    34    1
    36    31    32    1
    37    40    41    1
    38    40    39    1
    39    16    15    1
    40    36    37    2
    41    36    38    1
    42     4     5    1
    43    38    39    1
    44    15    14    1
    45     5     6    1
    46    14    13    1
    47     6     7    1
    48    13    12    1
    49     7     8    1
    50     8     9    1
    51     9    10    2
    52    12    11    1
    53    10    11    1
