@<TRIPOS>MOLECULE
/Users/xuhangdai/Desktop/Projects/OptimalTransport/extra_bio_ligands_boltz_af3/boltz_results_1ln1_DLP/1ln1_DLP_model_46_chainB.pdb
 54 53 0 0 0
SMALL
GASTEIGER

@<TRIPOS>ATOM
      1 C101        7.8400    1.7510    5.1660 C.3     0  LIG0        0.0000
      2 C110        7.3670    2.8950    5.9630 C.3     0  LIG0        0.0000
      3 C118        6.5000    3.7880    5.2060 C.3     0  LIG0        0.0003
      4 C114        6.2870    5.0600    5.8970 C.3     0  LIG0        0.0047
      5 C106        4.9420    5.5540    5.6940 C.3     0  LIG0        0.0257
      6  C95        4.7370    6.8890    6.2580 C.2     0  LIG0       -0.0307
      7  C91        3.6990    7.1450    7.0020 C.2     0  LIG0       -0.0307
      8  C99        2.9130    6.0710    7.5140 C.3     0  LIG0        0.0257
      9  C93        1.8610    6.4940    8.3490 C.3     0  LIG0        0.0047
     10  C97        1.1530    5.4890    8.8190 C.3     0  LIG0        0.0003
     11 C108        0.1080    5.5180    9.6900 C.3     0  LIG0        0.0000
     12 C116       -0.5580    4.2230    9.7990 C.3     0  LIG0        0.0000
     13 C122        0.0450    3.2400    8.9190 C.3     0  LIG0        0.0000
     14 C124       -0.3900    1.8760    9.1440 C.3     0  LIG0        0.0000
     15 C120        0.6750    0.9700    9.4190 C.3     0  LIG0        0.0006
     16 C112        1.4140    0.5300    8.2530 C.3     0  LIG0        0.0116
     17 C104        1.1960   -0.8950    7.9690 C.3     0  LIG0        0.1096
     18  C89        1.3960   -1.1430    6.5420 C.2     0  LIG0        0.3171
     19  O81        2.4740   -1.3400    6.1000 O.2     0  LIG0       -0.2501
     20  O85        0.2950   -1.1420    5.8020 O.3     0  LIG0       -0.4444
     21 C126        0.3880   -1.3990    4.4230 C.3     0  LIG0        0.2543
     22 C132       -0.6920   -0.6500    3.7180 C.3     0  LIG0        0.2420
     23 C127       -0.7360   -1.0130    2.2670 C.3     0  LIG0        0.1964
     24  O88       -1.8350   -1.7990    2.0880 O.3     0  LIG0       -0.3101
     25 P134       -2.4760   -1.9690    0.6870 P.3     0  LIG0        0.2140
     26  O83       -1.4370   -2.1680   -0.3260 O.2     0  LIG0       -0.5172
     27  O84       -3.4920   -3.0130    0.7820 O.3     0  LIG0       -0.4373
     28  O87       -3.2100   -0.6190    0.3650 O.3     0  LIG0       -0.3163
     29 C103       -4.1100   -0.1120    1.2370 C.3     0  LIG0        0.1271
     30 C131       -4.9760    0.8620    0.5540 C.3     0  LIG0       -0.0402
     31 N133       -4.7850    2.2480    0.9320 N.4     0  LIG0        0.3874
     32 C128       -5.1210    2.4460    2.3330 C.3     0  LIG0       -0.0959
     33 C129       -3.3900    2.6590    0.7510 C.3     0  LIG0       -0.0959
     34 C130       -5.6230    3.0720    0.1210 C.3     0  LIG0       -0.0959
     35  O86       -0.5030    0.7280    3.8090 O.3     0  LIG0       -0.4457
     36  C90       -1.4590    1.4730    4.4310 C.2     0  LIG0        0.3171
     37  O82       -2.3350    0.9430    5.0290 O.2     0  LIG0       -0.2501
     38 C105       -1.3660    2.9620    4.3100 C.3     0  LIG0        0.1096
     39 C113       -0.0600    3.4970    4.6960 C.3     0  LIG0        0.0116
     40 C121        0.8910    3.2680    3.6220 C.3     0  LIG0        0.0006
     41 C125        1.9510    4.2800    3.4920 C.3     0  LIG0        0.0000
     42 C123        3.2780    3.6660    3.1950 C.3     0  LIG0        0.0000
     43 C117        3.3610    2.9600    1.9300 C.3     0  LIG0        0.0000
     44 C109        4.4420    1.9680    1.9270 C.3     0  LIG0        0.0000
     45  C98        3.8970    0.7330    1.6810 C.3     0  LIG0        0.0003
     46  C94        4.2460   -0.3430    2.3440 C.3     0  LIG0        0.0047
     47 C100        3.6820   -1.5180    1.8870 C.3     0  LIG0        0.0257
     48  C92        4.0350   -2.6410    2.7180 C.2     0  LIG0       -0.0307
     49  C96        3.7460   -3.8530    2.3860 C.2     0  LIG0       -0.0307
     50 C107        3.0300   -4.2310    1.1660 C.3     0  LIG0        0.0257
     51 C115        3.3100   -5.6410    0.8300 C.3     0  LIG0        0.0047
     52 C119        2.5190   -6.0820   -0.3330 C.3     0  LIG0        0.0003
     53 C111        3.1260   -7.2200   -1.0100 C.3     0  LIG0        0.0000
     54 C102        2.3410   -7.6380   -2.2060 C.3     0  LIG0        0.0000
@<TRIPOS>BOND
     1    54    53    1
     2    53    52    1
     3    52    51    1
     4    26    25    2
     5    34    31    1
     6    28    25    1
     7    28    29    1
     8    30    31    1
     9    30    29    1
    10    25    27    1
    11    25    24    1
    12    33    31    1
    13    51    50    1
    14    31    32    1
    15    50    49    1
    16    45    44    1
    17    45    46    1
    18    47    46    1
    19    47    48    1
    20    44    43    1
    21    43    42    1
    22    24    23    1
    23    23    22    1
    24    49    48    2
    25    42    41    1
    26    41    40    1
    27    40    39    1
    28    22    35    1
    29    22    21    1
    30    35    36    1
    31    38    36    1
    32    38    39    1
    33    21    20    1
    34    36    37    2
    35     1     2    1
    36     3     4    1
    37     3     2    1
    38     5     4    1
    39     5     6    1
    40    20    18    1
    41    19    18    2
    42     6     7    2
    43    18    17    1
    44     7     8    1
    45     8     9    1
    46    17    16    1
    47    16    15    1
    48     9    10    1
    49    10    11    1
    50    13    14    1
    51    13    12    1
    52    14    15    1
    53    11    12    1
