@<TRIPOS>MOLECULE
/Users/xuhangdai/Desktop/Projects/OptimalTransport/extra_bio_ligands_boltz_af3/boltz_results_1ln1_DLP/1ln1_DLP_model_14_chainB.pdb
 54 53 0 0 0
SMALL
GASTEIGER

@<TRIPOS>ATOM
      1 C101       -3.6190    6.4390    6.8980 C.3     0  LIG0        0.0000
      2 C110       -3.1240    7.8120    6.6850 C.3     0  LIG0        0.0000
      3 C118       -1.8340    7.8330    5.9670 C.3     0  LIG0        0.0003
      4 C114       -1.1970    9.1610    6.0620 C.3     0  LIG0        0.0047
      5 C106       -0.2540    9.4010    4.9500 C.3     0  LIG0        0.0257
      6  C95        0.2510   10.7680    5.0020 C.2     0  LIG0       -0.0307
      7  C91        0.3910   11.5300    3.9380 C.2     0  LIG0       -0.0307
      8  C99        0.2350   11.1050    2.5640 C.3     0  LIG0        0.0257
      9  C93       -1.1020   11.3270    2.1630 C.3     0  LIG0        0.0047
     10  C97       -1.4930   11.8780    1.0710 C.3     0  LIG0        0.0003
     11 C108       -1.0340   11.7130   -0.2590 C.3     0  LIG0        0.0000
     12 C116       -2.2110   11.8610   -1.1020 C.3     0  LIG0        0.0000
     13 C122       -2.5850   10.6410   -1.8300 C.3     0  LIG0        0.0000
     14 C124       -3.0040    9.5290   -0.9540 C.3     0  LIG0        0.0000
     15 C120       -4.4380    9.4780   -0.7120 C.3     0  LIG0        0.0006
     16 C112       -4.7280    8.3820    0.2000 C.3     0  LIG0        0.0116
     17 C104       -5.5130    7.3180   -0.4480 C.3     0  LIG0        0.1096
     18  C89       -5.0000    6.0030   -0.0380 C.2     0  LIG0        0.3171
     19  O81       -5.3490    5.5010    0.9770 O.2     0  LIG0       -0.2501
     20  O85       -4.1510    5.4190   -0.8770 O.3     0  LIG0       -0.4444
     21 C126       -3.6360    4.1440   -0.5760 C.3     0  LIG0        0.2543
     22 C132       -2.3740    3.9490   -1.3300 C.3     0  LIG0        0.2420
     23 C127       -1.8720    2.5440   -1.1660 C.3     0  LIG0        0.1964
     24  O88       -1.6570    2.0560   -2.4210 O.3     0  LIG0       -0.3101
     25 P134       -0.8860    0.7320   -2.6570 P.3     0  LIG0        0.2140
     26  O83       -0.7000    0.0020   -1.4150 O.3     0  LIG0       -0.4373
     27  O84       -1.5650    0.0080   -3.7260 O.2     0  LIG0       -0.5172
     28  O87        0.5390    1.1450   -3.1670 O.3     0  LIG0       -0.3163
     29 C103        0.7640    2.3310   -3.7490 C.3     0  LIG0        0.1271
     30 C131        2.1110    2.3320   -4.3580 C.3     0  LIG0       -0.0402
     31 N133        2.9070    3.5100   -4.0780 N.4     0  LIG0        0.3874
     32 C128        3.0430    3.7120   -2.6270 C.3     0  LIG0       -0.0959
     33 C129        2.2640    4.7050   -4.6410 C.3     0  LIG0       -0.0959
     34 C130        4.2030    3.3580   -4.6590 C.3     0  LIG0       -0.0959
     35  O86       -1.3620    4.8140   -0.9010 O.3     0  LIG0       -0.4457
     36  C90       -0.8320    5.7010   -1.7970 C.2     0  LIG0        0.3171
     37  O82       -1.3150    5.8060   -2.8750 O.2     0  LIG0       -0.2501
     38 C105        0.3740    6.5000   -1.3880 C.3     0  LIG0        0.1096
     39 C113        0.2190    7.2560   -0.1400 C.3     0  LIG0        0.0116
     40 C121        0.2400    6.3460    1.0190 C.3     0  LIG0        0.0006
     41 C125        1.0720    6.8170    2.1520 C.3     0  LIG0        0.0000
     42 C123        0.6010    6.2750    3.4680 C.3     0  LIG0        0.0003
     43 C117        0.6460    4.8140    3.5840 C.3     0  LIG0        0.0047
     44 C109       -0.4060    4.2990    4.4910 C.3     0  LIG0        0.0257
     45  C98       -1.0550    3.2350    3.8720 C.2     0  LIG0       -0.0304
     46  C94       -2.3340    3.2710    3.5300 C.2     0  LIG0       -0.0260
     47 C100       -2.9070    2.0630    3.1680 C.3     0  LIG0        0.0513
     48  C92       -4.2570    2.2150    2.6600 C.2     0  LIG0       -0.0260
     49  C96       -4.9460    1.1850    2.2700 C.2     0  LIG0       -0.0304
     50 C107       -4.4250   -0.1970    2.2930 C.3     0  LIG0        0.0257
     51 C115       -5.4180   -1.1430    1.7380 C.3     0  LIG0        0.0047
     52 C119       -4.7600   -2.3920    1.2950 C.3     0  LIG0        0.0003
     53 C111       -5.3570   -3.5870    1.8790 C.3     0  LIG0        0.0000
     54 C102       -4.7110   -4.8460    1.3940 C.3     0  LIG0        0.0000
@<TRIPOS>BOND
     1    34    31    1
     2    33    31    1
     3    30    31    1
     4    30    29    1
     5    31    32    1
     6    29    28    1
     7    27    25    2
     8    28    25    1
     9    37    36    2
    10    25    24    1
    11    25    26    1
    12    24    23    1
    13    13    12    1
    14    13    14    1
    15    36    38    1
    16    36    35    1
    17    38    39    1
    18    22    23    1
    19    22    35    1
    20    22    21    1
    21    12    11    1
    22    14    15    1
    23    20    21    1
    24    20    18    1
    25    15    16    1
    26    17    18    1
    27    17    16    1
    28    11    10    1
    29    39    40    1
    30    18    19    2
    31    40    41    1
    32    10     9    1
    33    52    51    1
    34    52    53    1
    35    54    53    1
    36    51    50    1
    37    41    42    1
    38     9     8    1
    39    49    50    1
    40    49    48    2
    41     8     7    1
    42    48    47    1
    43    47    46    1
    44    42    43    1
    45    46    45    2
    46    43    44    1
    47    45    44    1
    48     7     6    2
    49     5     6    1
    50     5     4    1
    51     3     4    1
    52     3     2    1
    53     2     1    1
