@<TRIPOS>MOLECULE
/Users/xuhangdai/Desktop/Projects/OptimalTransport/extra_bio_ligands_boltz_af3/boltz_results_1ln1_DLP/1ln1_DLP_model_32_chainB.pdb
 54 53 0 0 0
SMALL
GASTEIGER

@<TRIPOS>ATOM
      1 C101        3.1330    7.3410   -5.0310 C.3     0  LIG0        0.0000
      2 C110        4.1180    8.0730   -4.2060 C.3     0  LIG0        0.0000
      3 C118        3.9710    7.8080   -2.7700 C.3     0  LIG0        0.0000
      4 C114        4.8840    8.6140   -1.9590 C.3     0  LIG0        0.0000
      5 C106        5.0970    8.0560   -0.6290 C.3     0  LIG0        0.0003
      6  C95        6.1930    8.7250    0.0220 C.3     0  LIG0        0.0047
      7  C91        7.1950    8.1920    0.6290 C.3     0  LIG0        0.0257
      8  C99        7.3630    6.8840    1.1060 C.2     0  LIG0       -0.0307
      9  C93        8.4100    6.2530    0.7310 C.2     0  LIG0       -0.0307
     10  C97        9.1520    5.3460    0.7330 C.3     0  LIG0        0.0257
     11 C108       10.0480    4.4670    0.9700 C.3     0  LIG0        0.0047
     12 C116       10.1160    3.3980   -0.0330 C.3     0  LIG0        0.0003
     13 C122        8.8550    2.6790   -0.1660 C.3     0  LIG0        0.0000
     14 C124        8.6920    1.9830   -1.4410 C.3     0  LIG0        0.0000
     15 C120        8.5650    2.8610   -2.5770 C.3     0  LIG0        0.0006
     16 C112        7.4390    2.5800   -3.4340 C.3     0  LIG0        0.0116
     17 C104        7.1910    1.1680   -3.6980 C.3     0  LIG0        0.1096
     18  C89        5.7360    0.9240   -3.6570 C.2     0  LIG0        0.3171
     19  O81        5.0090    1.3760   -4.4730 O.2     0  LIG0       -0.2501
     20  O85        5.3000    0.1690   -2.6520 O.3     0  LIG0       -0.4444
     21 C126        3.9200   -0.0910   -2.5230 C.3     0  LIG0        0.2543
     22 C132        3.6410   -0.4650   -1.1100 C.3     0  LIG0        0.2420
     23 C127        2.2050   -0.8760   -0.9240 C.3     0  LIG0        0.1964
     24  O88        2.1970   -2.2290   -0.7410 O.3     0  LIG0       -0.3101
     25 P134        0.9630   -2.9210   -0.0910 P.3     0  LIG0        0.2140
     26  O83       -0.2720   -2.4010   -0.6760 O.2     0  LIG0       -0.5172
     27  O84        1.1600   -4.3650   -0.1920 O.3     0  LIG0       -0.4373
     28  O87        0.9760   -2.5350    1.4310 O.3     0  LIG0       -0.3163
     29 C103        2.1120   -2.7030    2.1600 C.3     0  LIG0        0.1271
     30 C131        1.7790   -2.7360    3.5960 C.3     0  LIG0       -0.0402
     31 N133        2.3170   -1.6360    4.3820 N.4     0  LIG0        0.3874
     32 C128        3.7830   -1.6880    4.3850 C.3     0  LIG0       -0.0959
     33 C129        1.9000   -0.3390    3.8080 C.3     0  LIG0       -0.0959
     34 C130        1.8300   -1.7270    5.7270 C.3     0  LIG0       -0.0959
     35  O86        3.9140    0.5940   -0.2390 O.3     0  LIG0       -0.4457
     36  C90        4.8400    0.3780    0.7440 C.2     0  LIG0        0.3171
     37  O82        5.4610   -0.6300    0.7650 O.2     0  LIG0       -0.2501
     38 C105        5.0350    1.4380    1.7830 C.3     0  LIG0        0.1096
     39 C113        5.0930    2.7930    1.2270 C.3     0  LIG0        0.0116
     40 C121        3.7300    3.3190    1.1090 C.3     0  LIG0        0.0006
     41 C125        3.6410    4.6720    0.5280 C.3     0  LIG0        0.0000
     42 C123        2.2200    5.0150    0.2070 C.3     0  LIG0        0.0000
     43 C117        1.9850    5.3350   -1.1870 C.3     0  LIG0        0.0003
     44 C109        0.7200    4.8490   -1.7400 C.3     0  LIG0        0.0047
     45  C98        0.8940    3.8310   -2.4810 C.3     0  LIG0        0.0260
     46  C94        0.9430    3.1850   -3.4490 C.2     0  LIG0       -0.0261
     47 C100        0.9690    1.9840   -3.8980 C.2     0  LIG0       -0.0049
     48  C92        1.1020    1.7960   -5.2910 C.2     0  LIG0       -0.0049
     49  C96        0.7200    0.7630   -5.9330 C.2     0  LIG0       -0.0261
     50 C107        0.0240   -0.4010   -5.4180 C.3     0  LIG0        0.0260
     51 C115       -0.6210   -1.1570   -6.4920 C.3     0  LIG0        0.0047
     52 C119       -1.5730   -2.1560   -5.9660 C.3     0  LIG0        0.0003
     53 C111       -2.5770   -2.5480   -6.9540 C.3     0  LIG0        0.0000
     54 C102       -3.6380   -3.4300   -6.3890 C.3     0  LIG0        0.0000
@<TRIPOS>BOND
     1    53    54    1
     2    53    52    1
     3    51    52    1
     4    51    50    1
     5    49    50    1
     6    49    48    2
     7    48    47    1
     8     1     2    1
     9    19    18    2
    10     2     3    1
    11    47    46    2
    12    17    18    1
    13    17    16    1
    14    18    20    1
    15    46    45    1
    16    16    15    1
    17     3     4    1
    18    20    21    1
    19    15    14    1
    20    21    22    1
    21    45    44    1
    22     4     5    1
    23    44    43    1
    24    14    13    1
    25    43    42    1
    26    22    23    1
    27    22    35    1
    28    23    24    1
    29    24    25    1
    30    26    25    2
    31     5     6    1
    32    35    36    1
    33    27    25    1
    34    13    12    1
    35    25    28    1
    36    12    11    1
    37     6     7    1
    38    42    41    1
    39    41    40    1
    40     7     8    1
    41     9    10    1
    42     9     8    2
    43    10    11    1
    44    36    37    2
    45    36    38    1
    46    40    39    1
    47    39    38    1
    48    28    29    1
    49    29    30    1
    50    30    31    1
    51    33    31    1
    52    31    32    1
    53    31    34    1
