@<TRIPOS>MOLECULE
/Users/xuhangdai/Desktop/Projects/OptimalTransport/extra_bio_ligands_boltz_af3/boltz_results_1ln1_DLP/1ln1_DLP_model_44_chainB.pdb
 54 53 0 0 0
SMALL
GASTEIGER

@<TRIPOS>ATOM
      1 C101       -5.9360    7.7660    5.5700 C.3     0  LIG0        0.0000
      2 C110       -7.3430    7.3310    5.7930 C.3     0  LIG0        0.0000
      3 C118       -7.8080    6.4240    4.7160 C.3     0  LIG0        0.0000
      4 C114       -9.2330    6.0690    4.9110 C.3     0  LIG0        0.0000
      5 C106       -9.4960    4.7250    4.3700 C.3     0  LIG0        0.0000
      6  C95      -10.9370    4.4030    4.4850 C.3     0  LIG0        0.0000
      7  C91      -11.3440    3.3190    5.1090 C.3     0  LIG0        0.0000
      8  C99      -10.4930    2.6100    6.0460 C.3     0  LIG0        0.0000
      9  C93      -10.9710    1.2550    6.2230 C.3     0  LIG0        0.0000
     10  C97      -10.5970    0.6760    7.4180 C.3     0  LIG0        0.0000
     11 C108      -10.4380   -0.7390    7.4850 C.3     0  LIG0        0.0000
     12 C116       -9.4150   -1.0480    8.5060 C.3     0  LIG0        0.0000
     13 C122       -8.0680   -0.9940    7.9060 C.3     0  LIG0        0.0000
     14 C124       -7.4100    0.2670    8.2840 C.3     0  LIG0        0.0000
     15 C120       -5.9970    0.0540    8.5340 C.3     0  LIG0        0.0006
     16 C112       -5.3760    1.3310    8.7840 C.3     0  LIG0        0.0116
     17 C104       -3.9210    1.1410    8.8060 C.3     0  LIG0        0.1096
     18  C89       -3.3520    1.4850    7.4850 C.2     0  LIG0        0.3171
     19  O81       -3.1060    2.6090    7.2000 O.2     0  LIG0       -0.2501
     20  O85       -3.1120    0.4700    6.6600 O.3     0  LIG0       -0.4444
     21 C126       -2.3610    0.7300    5.4870 C.3     0  LIG0        0.2543
     22 C132       -2.6720   -0.3310    4.4810 C.3     0  LIG0        0.2420
     23 C127       -1.7510   -0.2180    3.2850 C.3     0  LIG0        0.1964
     24  O88       -0.9880   -1.3650    3.2750 O.3     0  LIG0       -0.3101
     25 P134       -0.2380   -1.7990    1.9760 P.3     0  LIG0        0.2140
     26  O83        0.3200   -0.6350    1.2890 O.2     0  LIG0       -0.5172
     27  O84        0.7280   -2.8360    2.3430 O.3     0  LIG0       -0.4373
     28  O87       -1.3110   -2.4490    1.0320 O.3     0  LIG0       -0.3163
     29 C103       -2.1370   -3.4120    1.5240 C.3     0  LIG0        0.1271
     30 C131       -2.6700   -4.2150    0.3970 C.3     0  LIG0       -0.0402
     31 N133       -4.1160   -4.1260    0.2310 N.4     0  LIG0        0.3874
     32 C128       -4.8010   -4.5350    1.4670 C.3     0  LIG0       -0.0959
     33 C129       -4.5110   -2.7400   -0.0920 C.3     0  LIG0       -0.0959
     34 C130       -4.5210   -4.9890   -0.8430 C.3     0  LIG0       -0.0959
     35  O86       -3.9930   -0.2160    4.0200 O.3     0  LIG0       -0.4457
     36  C90       -4.8210   -1.2960    4.2130 C.2     0  LIG0        0.3171
     37  O82       -4.4680   -2.2000    4.8920 O.2     0  LIG0       -0.2501
     38 C105       -6.1640   -1.3040    3.5340 C.3     0  LIG0        0.1096
     39 C113       -6.8960   -0.0380    3.7090 C.3     0  LIG0        0.0116
     40 C121       -6.4240    0.8950    2.6750 C.3     0  LIG0        0.0006
     41 C125       -7.3070    2.0820    2.5180 C.3     0  LIG0        0.0000
     42 C123       -6.5590    3.3390    2.8670 C.3     0  LIG0        0.0000
     43 C117       -5.9180    3.9820    1.6900 C.3     0  LIG0        0.0000
     44 C109       -4.9380    5.0170    2.1350 C.3     0  LIG0        0.0000
     45  C98       -3.6590    4.4170    2.2730 C.3     0  LIG0        0.0003
     46  C94       -2.9700    4.6540    3.4220 C.3     0  LIG0        0.0047
     47 C100       -1.6010    4.2840    3.3780 C.3     0  LIG0        0.0257
     48  C92       -1.0010    4.3540    4.7190 C.2     0  LIG0       -0.0307
     49  C96        0.2870    4.2180    4.9040 C.2     0  LIG0       -0.0307
     50 C107        1.2550    3.9920    3.7880 C.3     0  LIG0        0.0257
     51 C115        2.6370    3.8880    4.3330 C.3     0  LIG0        0.0047
     52 C119        3.5450    3.2470    3.3360 C.3     0  LIG0        0.0003
     53 C111        4.8060    3.9930    3.1750 C.3     0  LIG0        0.0000
     54 C102        5.7010    3.3530    2.1390 C.3     0  LIG0        0.0000
@<TRIPOS>BOND
     1    34    31    1
     2    33    31    1
     3    31    30    1
     4    31    32    1
     5    30    29    1
     6    28    29    1
     7    28    25    1
     8    26    25    2
     9    43    44    1
    10    43    42    1
    11    25    27    1
    12    25    24    1
    13    44    45    1
    14    54    53    1
    15    45    46    1
    16    41    40    1
    17    41    42    1
    18    40    39    1
    19    53    52    1
    20    24    23    1
    21    23    22    1
    22    52    51    1
    23    47    46    1
    24    47    48    1
    25    38    39    1
    26    38    36    1
    27    50    51    1
    28    50    49    1
    29    35    36    1
    30    35    22    1
    31    36    37    2
    32     5     6    1
    33     5     4    1
    34    22    21    1
    35     6     7    1
    36     3     4    1
    37     3     2    1
    38    48    49    2
    39     7     8    1
    40    21    20    1
    41     1     2    1
    42     8     9    1
    43     9    10    1
    44    20    18    1
    45    19    18    2
    46    10    11    1
    47    11    12    1
    48    18    17    1
    49    13    14    1
    50    13    12    1
    51    14    15    1
    52    15    16    1
    53    16    17    1
