@<TRIPOS>MOLECULE
/Users/xuhangdai/Desktop/Projects/OptimalTransport/extra_bio_ligands_boltz_af3/boltz_results_1ln1_DLP/1ln1_DLP_model_28_chainB.pdb
 54 53 0 0 0
SMALL
GASTEIGER

@<TRIPOS>ATOM
      1 C101        2.5810   11.0460    2.8610 C.3     0  LIG0        0.0000
      2 C110        1.3080   10.4350    3.3700 C.3     0  LIG0        0.0000
      3 C118        0.8810   11.0630    4.6160 C.3     0  LIG0        0.0003
      4 C114       -0.4510   10.6240    5.0630 C.3     0  LIG0        0.0047
      5 C106       -0.6890   10.9860    6.4770 C.3     0  LIG0        0.0257
      6  C95       -1.8570   10.2660    7.0210 C.2     0  LIG0       -0.0304
      7  C91       -1.7730    9.5790    8.1360 C.2     0  LIG0       -0.0260
      8  C99       -0.5640    9.4860    8.9160 C.3     0  LIG0        0.0513
      9  C93       -0.6650    8.3890    9.8210 C.2     0  LIG0       -0.0260
     10  C97        0.3990    8.2250   10.6750 C.2     0  LIG0       -0.0304
     11 C108        0.5640    6.9490   11.2750 C.3     0  LIG0        0.0257
     12 C116        2.0090    6.6930   11.4110 C.3     0  LIG0        0.0047
     13 C122        2.4530    5.5900   10.5330 C.3     0  LIG0        0.0003
     14 C124        2.7730    6.0450    9.1600 C.3     0  LIG0        0.0000
     15 C120        4.1200    6.5930    9.0670 C.3     0  LIG0        0.0006
     16 C112        4.5310    6.6020    7.6680 C.3     0  LIG0        0.0116
     17 C104        5.1460    5.3050    7.3000 C.3     0  LIG0        0.1096
     18  C89        4.6420    4.8630    5.9860 C.2     0  LIG0        0.3171
     19  O81        4.7550    5.5270    5.0160 O.2     0  LIG0       -0.2501
     20  O85        4.0820    3.6490    5.9630 O.3     0  LIG0       -0.4444
     21 C126        3.5500    3.1560    4.7470 C.3     0  LIG0        0.2543
     22 C132        2.3740    2.2800    5.0630 C.3     0  LIG0        0.2420
     23 C127        1.8830    1.5680    3.8330 C.3     0  LIG0        0.1964
     24  O88        2.2980    0.2620    3.9410 O.3     0  LIG0       -0.3101
     25 P134        1.6060   -0.8510    3.0880 P.3     0  LIG0        0.2140
     26  O83        1.4130   -0.3840    1.7140 O.2     0  LIG0       -0.5172
     27  O84        2.3710   -2.0830    3.2480 O.3     0  LIG0       -0.4373
     28  O87        0.1870   -1.0820    3.7230 O.3     0  LIG0       -0.3163
     29 C103        0.0770   -1.3240    5.0590 C.3     0  LIG0        0.1271
     30 C131       -1.2430   -1.9130    5.3420 C.3     0  LIG0       -0.0402
     31 N133       -2.2090   -1.0150    5.9630 N.4     0  LIG0        0.3874
     32 C128       -1.7730   -0.6440    7.3110 C.3     0  LIG0       -0.0959
     33 C129       -2.3530    0.2280    5.1640 C.3     0  LIG0       -0.0959
     34 C130       -3.4840   -1.6670    6.0340 C.3     0  LIG0       -0.0959
     35  O86        1.3080    3.0380    5.5750 O.3     0  LIG0       -0.4457
     36  C90        0.9290    2.7910    6.8650 C.2     0  LIG0        0.3171
     37  O82        1.5990    2.1110    7.5670 O.2     0  LIG0       -0.2501
     38 C105       -0.3620    3.3860    7.3470 C.3     0  LIG0        0.1096
     39 C113       -0.4460    4.8370    7.1040 C.3     0  LIG0        0.0116
     40 C121       -0.9780    5.0460    5.7490 C.3     0  LIG0        0.0006
     41 C125       -1.6320    6.3650    5.5800 C.3     0  LIG0        0.0000
     42 C123       -1.0640    7.1210    4.4130 C.3     0  LIG0        0.0003
     43 C117       -1.3020    6.4700    3.1120 C.3     0  LIG0        0.0047
     44 C109       -0.3790    6.9840    2.0590 C.3     0  LIG0        0.0257
     45  C98        0.4090    5.9130    1.5750 C.2     0  LIG0       -0.0304
     46  C94        1.7480    5.9880    1.7710 C.2     0  LIG0       -0.0260
     47 C100        2.5160    5.0780    1.0110 C.3     0  LIG0        0.0513
     48  C92        3.9250    5.1660    1.4070 C.2     0  LIG0       -0.0260
     49  C96        4.8520    4.4580    0.8140 C.2     0  LIG0       -0.0304
     50 C107        4.5820    3.5280   -0.3120 C.3     0  LIG0        0.0257
     51 C115        5.8660    2.9300   -0.7920 C.3     0  LIG0        0.0047
     52 C119        5.6700    1.5280   -1.2660 C.3     0  LIG0        0.0003
     53 C111        5.7450    1.4190   -2.7310 C.3     0  LIG0        0.0000
     54 C102        5.7430   -0.0190   -3.1860 C.3     0  LIG0        0.0000
@<TRIPOS>BOND
     1    54    53    1
     2    53    52    1
     3    52    51    1
     4    51    50    1
     5    50    49    1
     6    49    48    2
     7    47    48    1
     8    47    46    1
     9    45    46    2
    10    45    44    1
    11    26    25    2
    12    44    43    1
    13     1     2    1
    14    25    27    1
    15    25    28    1
    16    25    24    1
    17    43    42    1
    18     2     3    1
    19    28    29    1
    20    23    24    1
    21    23    22    1
    22    42    41    1
    23     3     4    1
    24    21    22    1
    25    21    20    1
    26    19    18    2
    27    29    30    1
    28     4     5    1
    29    22    35    1
    30    33    31    1
    31    30    31    1
    32    35    36    1
    33    41    40    1
    34    40    39    1
    35    31    34    1
    36    31    32    1
    37    20    18    1
    38    18    17    1
    39     5     6    1
    40    36    38    1
    41    36    37    2
    42     6     7    2
    43    39    38    1
    44    17    16    1
    45    16    15    1
    46     7     8    1
    47     8     9    1
    48    15    14    1
    49    14    13    1
    50     9    10    2
    51    13    12    1
    52    10    11    1
    53    11    12    1
