@<TRIPOS>MOLECULE
/Users/xuhangdai/Desktop/Projects/OptimalTransport/extra_bio_ligands_boltz_af3/boltz_results_1ln1_DLP/1ln1_DLP_model_10_chainB.pdb
 54 53 0 0 0
SMALL
GASTEIGER

@<TRIPOS>ATOM
      1 C101       -5.1100   -8.0290   -6.8840 C.3     0  LIG0        0.0000
      2 C110       -4.1410   -9.0940   -6.4960 C.3     0  LIG0        0.0000
      3 C118       -2.7470   -8.6220   -6.6310 C.3     0  LIG0        0.0000
      4 C114       -1.7900   -9.7540   -6.6760 C.3     0  LIG0        0.0000
      5 C106       -0.8220   -9.6490   -5.5760 C.3     0  LIG0        0.0000
      6  C95        0.3280  -10.5510   -5.7890 C.3     0  LIG0        0.0000
      7  C91        0.8690  -11.1540   -4.7290 C.3     0  LIG0        0.0000
      8  C99        0.0170  -11.5400   -3.6200 C.3     0  LIG0        0.0000
      9  C93        0.7240  -11.4780   -2.3740 C.3     0  LIG0        0.0000
     10  C97        0.0740  -12.0950   -1.3290 C.3     0  LIG0        0.0000
     11 C108        0.5960  -11.9110   -0.0100 C.3     0  LIG0        0.0000
     12 C116       -0.5260  -11.7930    0.9460 C.3     0  LIG0        0.0000
     13 C122       -0.9560  -10.3750    1.0370 C.3     0  LIG0        0.0000
     14 C124       -2.4280  -10.2800    1.1080 C.3     0  LIG0        0.0000
     15 C120       -2.9500   -9.7340   -0.1490 C.3     0  LIG0        0.0006
     16 C112       -4.3890   -9.4760   -0.0440 C.3     0  LIG0        0.0116
     17 C104       -4.6750   -8.4170    0.9490 C.3     0  LIG0        0.1096
     18  C89       -4.5330   -7.0720    0.3520 C.2     0  LIG0        0.3171
     19  O81       -5.1010   -6.7470   -0.6370 O.2     0  LIG0       -0.2501
     20  O85       -3.7430   -6.2480    1.0410 O.3     0  LIG0       -0.4444
     21 C126       -3.5840   -4.9200    0.6010 C.3     0  LIG0        0.2543
     22 C132       -2.2070   -4.4570    0.9730 C.3     0  LIG0        0.2420
     23 C127       -2.0390   -2.9860    0.7090 C.3     0  LIG0        0.1964
     24  O88       -1.9950   -2.3630    1.9370 O.3     0  LIG0       -0.3101
     25 P134       -1.4680   -0.8970    2.0660 P.3     0  LIG0        0.2140
     26  O83       -1.8340   -0.1200    0.8810 O.2     0  LIG0       -0.5172
     27  O84       -1.9290   -0.3720    3.3480 O.3     0  LIG0       -0.4373
     28  O87        0.1030   -0.9800    2.1110 O.3     0  LIG0       -0.3163
     29 C103        0.7200   -1.8960    2.8960 C.3     0  LIG0        0.1271
     30 C131        2.1580   -1.5500    3.0200 C.3     0  LIG0       -0.0402
     31 N133        3.0690   -2.4910    2.3760 N.4     0  LIG0        0.3874
     32 C128        2.8770   -3.8450    2.9200 C.3     0  LIG0       -0.0959
     33 C129        2.8120   -2.5370    0.9070 C.3     0  LIG0       -0.0959
     34 C130        4.4240   -2.0750    2.5960 C.3     0  LIG0       -0.0959
     35  O86       -1.2300   -5.1430    0.2300 O.3     0  LIG0       -0.4457
     36  C90       -0.2780   -5.8410    0.9230 C.2     0  LIG0        0.3171
     37  O82       -0.3840   -5.9830    2.0970 O.2     0  LIG0       -0.2501
     38 C105        0.9020   -6.3890    0.1630 C.3     0  LIG0        0.1096
     39 C113        0.5150   -7.0750   -1.0900 C.3     0  LIG0        0.0116
     40 C121        0.4150   -6.0620   -2.1630 C.3     0  LIG0        0.0006
     41 C125        0.4260   -6.6460   -3.5330 C.3     0  LIG0        0.0000
     42 C123       -0.8340   -6.2990   -4.2800 C.3     0  LIG0        0.0000
     43 C117       -0.8320   -4.9230   -4.8220 C.3     0  LIG0        0.0000
     44 C109       -2.2210   -4.4930   -5.1850 C.3     0  LIG0        0.0000
     45  C98       -2.7610   -3.7940   -4.0760 C.3     0  LIG0        0.0003
     46  C94       -4.0510   -4.0470   -3.7470 C.3     0  LIG0        0.0047
     47 C100       -4.6490   -3.0130   -2.9990 C.3     0  LIG0        0.0257
     48  C92       -5.9050   -3.4690   -2.3950 C.2     0  LIG0       -0.0307
     49  C96       -6.6990   -2.6220   -1.7890 C.2     0  LIG0       -0.0307
     50 C107       -6.4570   -1.1570   -1.7480 C.3     0  LIG0        0.0257
     51 C115       -7.4480   -0.5200   -0.8160 C.3     0  LIG0        0.0047
     52 C119       -7.0250    0.8520   -0.4420 C.3     0  LIG0        0.0003
     53 C111       -7.8680    1.8840   -1.0700 C.3     0  LIG0        0.0000
     54 C102       -7.6480    3.2380   -0.4400 C.3     0  LIG0        0.0000
@<TRIPOS>BOND
     1     1     2    1
     2     4     3    1
     3     4     5    1
     4     3     2    1
     5     6     5    1
     6     6     7    1
     7    44    43    1
     8    44    45    1
     9    43    42    1
    10     7     8    1
    11    42    41    1
    12    45    46    1
    13    46    47    1
    14     8     9    1
    15    41    40    1
    16    47    48    1
    17    48    49    2
    18     9    10    1
    19    40    39    1
    20    49    50    1
    21    50    51    1
    22    10    11    1
    23    39    38    1
    24    53    52    1
    25    53    54    1
    26    51    52    1
    27    19    18    2
    28    15    16    1
    29    15    14    1
    30    16    17    1
    31    11    12    1
    32    38    36    1
    33    35    36    1
    34    35    22    1
    35    18    17    1
    36    18    20    1
    37    21    22    1
    38    21    20    1
    39    23    22    1
    40    23    24    1
    41    26    25    2
    42    33    31    1
    43    36    37    2
    44    12    13    1
    45    13    14    1
    46    24    25    1
    47    25    28    1
    48    25    27    1
    49    28    29    1
    50    31    34    1
    51    31    32    1
    52    31    30    1
    53    29    30    1
