@<TRIPOS>MOLECULE
/Users/xuhangdai/Desktop/Projects/OptimalTransport/extra_bio_ligands_boltz_af3/boltz_results_1ln1_DLP/1ln1_DLP_model_27_chainB.pdb
 54 53 0 0 0
SMALL
GASTEIGER

@<TRIPOS>ATOM
      1 C101       -5.6170   -1.8730   -9.0650 C.3     0  LIG0        0.0000
      2 C110       -4.6410   -1.4170  -10.0760 C.3     0  LIG0        0.0000
      3 C118       -3.4310   -0.8370   -9.4610 C.3     0  LIG0        0.0003
      4 C114       -2.5480   -0.2570  -10.4870 C.3     0  LIG0        0.0047
      5 C106       -1.1310   -0.4190  -10.1310 C.3     0  LIG0        0.0257
      6  C95       -0.3090    0.0700  -11.2350 C.2     0  LIG0       -0.0304
      7  C91        0.8500   -0.4220  -11.5400 C.2     0  LIG0       -0.0260
      8  C99        1.5640   -1.4480  -10.8200 C.3     0  LIG0        0.0513
      9  C93        1.7440   -2.5560  -11.7080 C.2     0  LIG0       -0.0260
     10  C97        2.6050   -3.5090  -11.5610 C.2     0  LIG0       -0.0304
     11 C108        3.4550   -3.7620  -10.4240 C.3     0  LIG0        0.0257
     12 C116        3.5240   -5.2120  -10.3020 C.3     0  LIG0        0.0047
     13 C122        3.1400   -5.7170   -8.9930 C.3     0  LIG0        0.0003
     14 C124        1.7400   -5.4180   -8.6090 C.3     0  LIG0        0.0000
     15 C120        0.8100   -6.4740   -8.9810 C.3     0  LIG0        0.0006
     16 C112       -0.4050   -6.3730   -8.1800 C.3     0  LIG0        0.0116
     17 C104       -0.2460   -7.0770   -6.8860 C.3     0  LIG0        0.1096
     18  C89       -0.7620   -6.2400   -5.7820 C.2     0  LIG0        0.3171
     19  O81       -1.8860   -5.8750   -5.7480 O.2     0  LIG0       -0.2501
     20  O85        0.1170   -5.9440   -4.8210 O.3     0  LIG0       -0.4444
     21 C126       -0.2920   -5.1510   -3.7180 C.3     0  LIG0        0.2543
     22 C132        0.8760   -4.3300   -3.2460 C.3     0  LIG0        0.2420
     23 C127        0.5240   -3.5900   -1.9830 C.3     0  LIG0        0.1964
     24  O88        1.1090   -4.2700   -0.9450 O.3     0  LIG0       -0.3101
     25 P134        1.3390   -3.5590    0.4280 P.3     0  LIG0        0.2140
     26  O83        0.1400   -2.8220    0.8280 O.2     0  LIG0       -0.5172
     27  O84        1.8130   -4.5610    1.3800 O.3     0  LIG0       -0.4373
     28  O87        2.4910   -2.5120    0.2110 O.3     0  LIG0       -0.3163
     29 C103        3.6580   -2.9090   -0.3670 C.3     0  LIG0        0.1271
     30 C131        4.7240   -1.9330   -0.0530 C.3     0  LIG0       -0.0402
     31 N133        5.1710   -1.1300   -1.1820 N.4     0  LIG0        0.3874
     32 C128        4.0440   -0.3430   -1.7440 C.3     0  LIG0       -0.0959
     33 C129        5.7100   -2.0080   -2.2450 C.3     0  LIG0       -0.0959
     34 C130        6.1960   -0.2220   -0.7510 C.3     0  LIG0       -0.0959
     35  O86        1.2490   -3.3840   -4.2120 O.3     0  LIG0       -0.4457
     36  C90        2.4930   -3.4950   -4.7660 C.2     0  LIG0        0.3171
     37  O82        3.1720   -4.4360   -4.5250 O.2     0  LIG0       -0.2501
     38 C105        2.9660   -2.3970   -5.6750 C.3     0  LIG0        0.1096
     39 C113        1.9060   -1.9100   -6.5740 C.3     0  LIG0        0.0116
     40 C121        1.1550   -0.8540   -5.8790 C.3     0  LIG0        0.0006
     41 C125       -0.0960   -0.4910   -6.5810 C.3     0  LIG0        0.0000
     42 C123       -0.7870    0.6260   -5.8730 C.3     0  LIG0        0.0000
     43 C117       -2.2350    0.4620   -5.7710 C.3     0  LIG0        0.0000
     44 C109       -2.6730   -0.4080   -4.6860 C.3     0  LIG0        0.0000
     45  C98       -3.2870   -1.5180   -5.2850 C.3     0  LIG0        0.0003
     46  C94       -3.6410   -2.5980   -4.7560 C.3     0  LIG0        0.0047
     47 C100       -3.7980   -2.8420   -3.3820 C.3     0  LIG0        0.0257
     48  C92       -4.3910   -4.1520   -3.2680 C.2     0  LIG0       -0.0307
     49  C96       -4.6980   -4.7530   -2.1940 C.2     0  LIG0       -0.0307
     50 C107       -4.4140   -4.2980   -0.8380 C.3     0  LIG0        0.0257
     51 C115       -5.3130   -5.0240    0.0940 C.3     0  LIG0        0.0047
     52 C119       -5.0200   -4.6630    1.4990 C.3     0  LIG0        0.0003
     53 C111       -6.0760   -5.1330    2.4060 C.3     0  LIG0        0.0000
     54 C102       -5.7530   -4.8230    3.8360 C.3     0  LIG0        0.0000
@<TRIPOS>BOND
     1     9    10    2
     2     9     8    1
     3    10    11    1
     4     7     6    2
     5     7     8    1
     6     6     5    1
     7     4     5    1
     8     4     3    1
     9    11    12    1
    10    12    13    1
    11     2     3    1
    12     2     1    1
    13    13    14    1
    14    15    14    1
    15    15    16    1
    16    16    17    1
    17    17    18    1
    18    41    40    1
    19    41    42    1
    20    39    40    1
    21    39    38    1
    22    42    43    1
    23    18    19    2
    24    18    20    1
    25    43    44    1
    26    38    36    1
    27    45    46    1
    28    45    44    1
    29    20    21    1
    30    36    37    2
    31    36    35    1
    32    46    47    1
    33    35    22    1
    34    21    22    1
    35    47    48    1
    36    48    49    2
    37    22    23    1
    38    33    31    1
    39    49    50    1
    40    23    24    1
    41    32    31    1
    42    31    34    1
    43    31    30    1
    44    24    25    1
    45    50    51    1
    46    29    30    1
    47    29    28    1
    48    51    52    1
    49    28    25    1
    50    25    26    2
    51    25    27    1
    52    52    53    1
    53    53    54    1
