@<TRIPOS>MOLECULE
/Users/xuhangdai/Desktop/Projects/OptimalTransport/extra_bio_ligands_boltz_af3/boltz_results_1ln1_DLP/1ln1_DLP_model_1_chainB.pdb
 54 53 0 0 0
SMALL
GASTEIGER

@<TRIPOS>ATOM
      1 C101        8.5290   -0.4240    8.3230 C.3     0  LIG0        0.0000
      2 C110        9.2850    0.6310    7.6050 C.3     0  LIG0        0.0000
      3 C118        8.4570    1.7650    7.1880 C.3     0  LIG0        0.0003
      4 C114        9.2670    2.8800    6.6720 C.3     0  LIG0        0.0047
      5 C106        8.4130    4.0450    6.3810 C.3     0  LIG0        0.0257
      6  C95        9.2240    5.2150    6.0620 C.2     0  LIG0       -0.0304
      7  C91        8.7300    6.4350    6.0470 C.2     0  LIG0       -0.0260
      8  C99        7.3250    6.7950    6.1630 C.3     0  LIG0        0.0513
      9  C93        7.0410    7.2320    7.4930 C.2     0  LIG0       -0.0260
     10  C97        5.9460    7.8640    7.8620 C.2     0  LIG0       -0.0304
     11 C108        4.8260    8.3080    7.0500 C.3     0  LIG0        0.0257
     12 C116        3.5690    8.1150    7.8050 C.3     0  LIG0        0.0047
     13 C122        2.9170    6.8660    7.3890 C.3     0  LIG0        0.0003
     14 C124        2.5420    6.0100    8.5330 C.3     0  LIG0        0.0000
     15 C120        2.9760    4.6340    8.2900 C.3     0  LIG0        0.0006
     16 C112        2.5690    3.7100    9.3540 C.3     0  LIG0        0.0116
     17 C104        1.3690    2.9430    8.9840 C.3     0  LIG0        0.1096
     18  C89        1.6600    1.9000    7.9700 C.2     0  LIG0        0.3171
     19  O81        2.5690    1.1460    8.0700 O.2     0  LIG0       -0.2501
     20  O85        0.8180    1.8740    6.9570 O.3     0  LIG0       -0.4444
     21 C126        1.0110    0.9540    5.9100 C.3     0  LIG0        0.2543
     22 C132        0.6030    1.6090    4.6260 C.3     0  LIG0        0.2420
     23 C127        0.4230    0.5880    3.5330 C.3     0  LIG0        0.1964
     24  O88       -0.9250    0.5410    3.2310 O.3     0  LIG0       -0.3101
     25 P134       -1.4130    0.0560    1.8240 P.3     0  LIG0        0.2140
     26  O83       -0.6740   -1.1410    1.4130 O.2     0  LIG0       -0.5172
     27  O84       -2.8680   -0.0820    1.8760 O.3     0  LIG0       -0.4373
     28  O87       -1.0700    1.2160    0.8160 O.3     0  LIG0       -0.3163
     29 C103       -1.5150    2.4840    1.0550 C.3     0  LIG0        0.1271
     30 C131       -1.6320    3.2290   -0.2270 C.3     0  LIG0       -0.0402
     31 N133       -0.6100    4.2590   -0.4460 N.4     0  LIG0        0.3874
     32 C128       -0.7110    5.3120    0.5780 C.3     0  LIG0       -0.0959
     33 C129        0.7390    3.6600   -0.3790 C.3     0  LIG0       -0.0959
     34 C130       -0.7930    4.8430   -1.7470 C.3     0  LIG0       -0.0959
     35  O86        1.5700    2.5350    4.2010 O.3     0  LIG0       -0.4457
     36  C90        1.2010    3.8530    4.0840 C.2     0  LIG0        0.3171
     37  O82        0.1430    4.2130    4.4820 O.2     0  LIG0       -0.2501
     38 C105        2.1680    4.8020    3.4220 C.3     0  LIG0        0.1096
     39 C113        3.5180    4.7740    4.0230 C.3     0  LIG0        0.0116
     40 C121        4.2360    3.5890    3.5320 C.3     0  LIG0        0.0006
     41 C125        5.7110    3.7870    3.4220 C.3     0  LIG0        0.0000
     42 C123        6.4740    2.5970    3.9280 C.3     0  LIG0        0.0003
     43 C117        6.2560    1.3520    3.1660 C.3     0  LIG0        0.0047
     44 C109        6.3680    0.1370    4.0100 C.3     0  LIG0        0.0257
     45  C98        5.1720   -0.5790    3.9450 C.2     0  LIG0       -0.0304
     46  C94        4.7560   -1.3260    4.9840 C.2     0  LIG0       -0.0260
     47 C100        3.5440   -2.0200    4.8490 C.3     0  LIG0        0.0513
     48  C92        3.1520   -2.6350    6.1070 C.2     0  LIG0       -0.0260
     49  C96        2.1690   -3.4600    6.2250 C.2     0  LIG0       -0.0304
     50 C107        1.2900   -3.8900    5.1150 C.3     0  LIG0        0.0257
     51 C115        0.6190   -5.1670    5.4650 C.3     0  LIG0        0.0047
     52 C119       -0.0980   -5.7500    4.2850 C.3     0  LIG0        0.0003
     53 C111       -0.1800   -7.2030    4.3590 C.3     0  LIG0        0.0000
     54 C102       -0.9010   -7.7800    3.1790 C.3     0  LIG0        0.0000
@<TRIPOS>BOND
     1    34    31    1
     2    31    33    1
     3    31    30    1
     4    31    32    1
     5    30    29    1
     6    28    29    1
     7    28    25    1
     8    26    25    2
     9    25    27    1
    10    25    24    1
    11    43    42    1
    12    43    44    1
    13    54    53    1
    14    24    23    1
    15    41    40    1
    16    41    42    1
    17    38    39    1
    18    38    36    1
    19    40    39    1
    20    23    22    1
    21    45    44    1
    22    45    46    2
    23    36    35    1
    24    36    37    2
    25    35    22    1
    26    52    53    1
    27    52    51    1
    28    22    21    1
    29    47    46    1
    30    47    48    1
    31    50    51    1
    32    50    49    1
    33    21    20    1
    34     7     6    2
    35     7     8    1
    36     6     5    1
    37    48    49    2
    38     8     9    1
    39     5     4    1
    40     4     3    1
    41    20    18    1
    42    11    12    1
    43    11    10    1
    44     3     2    1
    45    13    12    1
    46    13    14    1
    47     9    10    2
    48     2     1    1
    49    18    19    2
    50    18    17    1
    51    15    14    1
    52    15    16    1
    53    17    16    1
