@<TRIPOS>MOLECULE
/Users/xuhangdai/Desktop/Projects/OptimalTransport/extra_bio_ligands_boltz_af3/boltz_results_1ln1_DLP/1ln1_DLP_model_38_chainB.pdb
 54 53 0 0 0
SMALL
GASTEIGER

@<TRIPOS>ATOM
      1 C101      -11.0240   -2.4620   -1.5680 C.3     0  LIG0        0.0000
      2 C110      -11.1450   -3.4950   -0.5190 C.3     0  LIG0        0.0000
      3 C118       -9.8890   -4.2160   -0.2980 C.3     0  LIG0        0.0003
      4 C114      -10.1500   -5.5190    0.3220 C.3     0  LIG0        0.0047
      5 C106       -9.1920   -5.8090    1.3820 C.3     0  LIG0        0.0257
      6  C95       -9.5740   -7.0610    2.0250 C.2     0  LIG0       -0.0307
      7  C91       -9.3400   -7.3090    3.2620 C.2     0  LIG0       -0.0307
      8  C99       -8.6330   -6.4210    4.1300 C.3     0  LIG0        0.0257
      9  C93       -9.1820   -6.4950    5.4160 C.3     0  LIG0        0.0047
     10  C97       -9.2990   -5.4850    6.2160 C.3     0  LIG0        0.0003
     11 C108       -8.5570   -5.2210    7.3830 C.3     0  LIG0        0.0000
     12 C116       -8.7240   -3.8140    7.7690 C.3     0  LIG0        0.0000
     13 C122       -8.3790   -2.9470    6.6420 C.3     0  LIG0        0.0000
     14 C124       -8.4230   -1.5270    6.9850 C.3     0  LIG0        0.0000
     15 C120       -9.5370   -0.8830    6.3410 C.3     0  LIG0        0.0006
     16 C112       -9.1890   -0.4360    5.0030 C.3     0  LIG0        0.0116
     17 C104       -8.6700    0.9410    5.0110 C.3     0  LIG0        0.1096
     18  C89       -7.7670    1.1160    3.8570 C.2     0  LIG0        0.3171
     19  O81       -8.1810    1.1750    2.7530 O.2     0  LIG0       -0.2501
     20  O85       -6.4790    1.2220    4.1630 O.3     0  LIG0       -0.4444
     21 C126       -5.5450    1.3560    3.1120 C.3     0  LIG0        0.2543
     22 C132       -4.2520    0.7850    3.6030 C.3     0  LIG0        0.2420
     23 C127       -3.1390    1.0640    2.6270 C.3     0  LIG0        0.1964
     24  O88       -2.1980    1.7960    3.3320 O.3     0  LIG0       -0.3101
     25 P134       -0.7440    1.9380    2.7910 P.3     0  LIG0        0.2140
     26  O83       -0.7560    2.0240    1.3250 O.2     0  LIG0       -0.5172
     27  O84       -0.1090    3.0440    3.5010 O.3     0  LIG0       -0.4373
     28  O87        0.0040    0.6230    3.1840 O.3     0  LIG0       -0.3163
     29 C103       -0.1250    0.1380    4.4430 C.3     0  LIG0        0.1271
     30 C131        1.0760   -0.6510    4.7730 C.3     0  LIG0       -0.0402
     31 N133        0.7930   -2.0170    5.1700 N.4     0  LIG0        0.3874
     32 C128       -0.0560   -2.0330    6.3680 C.3     0  LIG0       -0.0959
     33 C129        0.0880   -2.7320    4.0760 C.3     0  LIG0       -0.0959
     34 C130        2.0260   -2.6970    5.4370 C.3     0  LIG0       -0.0959
     35  O86       -4.3550   -0.6050    3.7600 O.3     0  LIG0       -0.4457
     36  C90       -4.1620   -1.1030    5.0220 C.2     0  LIG0        0.3171
     37  O82       -3.9990   -0.3690    5.9350 O.2     0  LIG0       -0.2501
     38 C105       -4.1550   -2.5830    5.2220 C.3     0  LIG0        0.1096
     39 C113       -5.2300   -3.2500    4.4760 C.3     0  LIG0        0.0116
     40 C121       -4.7050   -3.5820    3.1460 C.3     0  LIG0        0.0006
     41 C125       -5.7500   -4.1080    2.2580 C.3     0  LIG0        0.0000
     42 C123       -5.2070   -4.2410    0.8710 C.3     0  LIG0        0.0000
     43 C117       -6.0370   -3.5860   -0.1350 C.3     0  LIG0        0.0000
     44 C109       -5.4970   -2.3040   -0.5600 C.3     0  LIG0        0.0000
     45  C98       -6.5990   -1.4580   -0.7600 C.3     0  LIG0        0.0003
     46  C94       -6.7160   -0.2450   -0.7090 C.3     0  LIG0        0.0047
     47 C100       -5.8040    0.7770   -0.8850 C.3     0  LIG0        0.0257
     48  C92       -6.5720    1.9950   -0.8920 C.2     0  LIG0       -0.0307
     49  C96       -6.1700    3.1820   -1.0190 C.2     0  LIG0       -0.0307
     50 C107       -4.8030    3.6660   -1.1060 C.3     0  LIG0        0.0257
     51 C115       -4.8520    5.1190   -1.3920 C.3     0  LIG0        0.0047
     52 C119       -3.5120    5.6520   -1.7460 C.3     0  LIG0        0.0003
     53 C111       -3.3840    5.8900   -3.1740 C.3     0  LIG0        0.0000
     54 C102       -2.1730    6.7180   -3.4910 C.3     0  LIG0        0.0000
@<TRIPOS>BOND
     1    54    53    1
     2    53    52    1
     3    52    51    1
     4     1     2    1
     5    51    50    1
     6    50    49    1
     7    49    48    2
     8    48    47    1
     9    47    46    1
    10    45    46    1
    11    45    44    1
    12    44    43    1
    13     2     3    1
    14     3     4    1
    15    43    42    1
    16     4     5    1
    17    42    41    1
    18    26    25    2
    19     5     6    1
    20     6     7    2
    21    41    40    1
    22    23    24    1
    23    23    22    1
    24    19    18    2
    25    25    28    1
    26    25    24    1
    27    25    27    1
    28    21    22    1
    29    21    20    1
    30    40    39    1
    31    28    29    1
    32     7     8    1
    33    22    35    1
    34    35    36    1
    35    18    20    1
    36    18    17    1
    37    33    31    1
    38     8     9    1
    39    29    30    1
    40    39    38    1
    41    30    31    1
    42    16    17    1
    43    16    15    1
    44    36    38    1
    45    36    37    2
    46    31    34    1
    47    31    32    1
    48     9    10    1
    49    10    11    1
    50    15    14    1
    51    13    14    1
    52    13    12    1
    53    11    12    1
