@<TRIPOS>MOLECULE
/Users/xuhangdai/Desktop/Projects/OptimalTransport/extra_bio_ligands_boltz_af3/boltz_results_1ln1_DLP/1ln1_DLP_model_25_chainB.pdb
 54 53 0 0 0
SMALL
GASTEIGER

@<TRIPOS>ATOM
      1 C101       -7.1070    5.9550    2.4520 C.3     0  LIG0        0.0000
      2 C110       -8.2140    4.9820    2.6130 C.3     0  LIG0        0.0000
      3 C118       -7.9440    3.7000    1.9360 C.3     0  LIG0        0.0003
      4 C114       -9.1680    2.8780    1.8710 C.3     0  LIG0        0.0047
      5 C106       -8.8580    1.4520    2.0570 C.3     0  LIG0        0.0257
      6  C95      -10.1020    0.6580    2.0170 C.2     0  LIG0       -0.0307
      7  C91      -10.2450   -0.3810    2.8100 C.2     0  LIG0       -0.0307
      8  C99       -9.3500   -0.5740    3.9290 C.3     0  LIG0        0.0257
      9  C93       -9.2840   -1.9520    4.3270 C.3     0  LIG0        0.0047
     10  C97       -8.8000   -2.0990    5.5730 C.3     0  LIG0        0.0003
     11 C108       -8.1300   -3.2730    6.0060 C.3     0  LIG0        0.0000
     12 C116       -7.1500   -2.8900    7.0300 C.3     0  LIG0        0.0000
     13 C122       -5.8390   -2.6060    6.4060 C.3     0  LIG0        0.0000
     14 C124       -5.1180   -1.4920    7.0660 C.3     0  LIG0        0.0000
     15 C120       -5.5080   -0.1960    6.5250 C.3     0  LIG0        0.0006
     16 C112       -4.5290    0.8770    6.7760 C.3     0  LIG0        0.0116
     17 C104       -3.1340    0.4570    6.6510 C.3     0  LIG0        0.1096
     18  C89       -2.4490    1.0290    5.4710 C.2     0  LIG0        0.3171
     19  O81       -2.6530    2.1220    5.0640 O.2     0  LIG0       -0.2501
     20  O85       -1.5630    0.2160    4.9210 O.3     0  LIG0       -0.4444
     21 C126       -0.9630    0.5540    3.7040 C.3     0  LIG0        0.2543
     22 C132       -0.8050   -0.7100    2.9180 C.3     0  LIG0        0.2420
     23 C127        0.0760   -0.4940    1.7180 C.3     0  LIG0        0.1964
     24  O88        1.1260   -1.3880    1.8170 O.3     0  LIG0       -0.3101
     25 P134        2.0530   -1.7090    0.6050 P.3     0  LIG0        0.2140
     26  O83        2.0760   -0.6100   -0.3550 O.2     0  LIG0       -0.5172
     27  O84        3.3470   -2.1320    1.1300 O.3     0  LIG0       -0.4373
     28  O87        1.3940   -2.9440   -0.1000 O.3     0  LIG0       -0.3163
     29 C103        0.9830   -3.9920    0.6480 C.3     0  LIG0        0.1271
     30 C131        0.8730   -5.1960   -0.2080 C.3     0  LIG0       -0.0402
     31 N133       -0.4860   -5.6960   -0.3590 N.4     0  LIG0        0.3874
     32 C128       -1.0300   -6.1040    0.9370 C.3     0  LIG0       -0.0959
     33 C129       -1.3610   -4.6470   -0.9130 C.3     0  LIG0       -0.0959
     34 C130       -0.4820   -6.8210   -1.2480 C.3     0  LIG0       -0.0959
     35  O86       -2.0560   -1.1710    2.4880 O.3     0  LIG0       -0.4457
     36  C90       -2.4500   -2.4210    2.8890 C.2     0  LIG0        0.3171
     37  O82       -1.6580   -3.1890    3.3150 O.2     0  LIG0       -0.2501
     38 C105       -3.8990   -2.7750    2.7870 C.3     0  LIG0        0.1096
     39 C113       -4.5420   -2.4080    1.5130 C.3     0  LIG0        0.0116
     40 C121       -5.0080   -1.0070    1.5780 C.3     0  LIG0        0.0006
     41 C125       -5.5950   -0.5420    0.2850 C.3     0  LIG0        0.0000
     42 C123       -5.7050    0.9510    0.2670 C.3     0  LIG0        0.0003
     43 C117       -4.9720    1.5600   -0.8590 C.3     0  LIG0        0.0047
     44 C109       -4.3630    2.8570   -0.4950 C.3     0  LIG0        0.0257
     45  C98       -3.1000    2.6150    0.0370 C.2     0  LIG0       -0.0304
     46  C94       -2.5210    3.6130    0.7080 C.2     0  LIG0       -0.0260
     47 C100       -1.1550    3.4610    0.9590 C.3     0  LIG0        0.0513
     48  C92       -0.6870    4.5630    1.7830 C.2     0  LIG0       -0.0260
     49  C96        0.5700    4.8320    1.9270 C.2     0  LIG0       -0.0304
     50 C107        1.6550    4.0850    1.2520 C.3     0  LIG0        0.0257
     51 C115        2.9450    4.7530    1.5560 C.3     0  LIG0        0.0047
     52 C119        3.9820    4.4270    0.5400 C.3     0  LIG0        0.0003
     53 C111        4.4190    5.6200   -0.1980 C.3     0  LIG0        0.0000
     54 C102        5.7340    5.3930   -0.8830 C.3     0  LIG0        0.0000
@<TRIPOS>BOND
     1    34    31    1
     2    33    31    1
     3    54    53    1
     4    43    44    1
     5    43    42    1
     6    44    45    1
     7    31    30    1
     8    31    32    1
     9    26    25    2
    10    30    29    1
    11    53    52    1
    12    28    25    1
    13    28    29    1
    14    45    46    2
    15    42    41    1
    16    41    40    1
    17    52    51    1
    18    25    27    1
    19    25    24    1
    20    46    47    1
    21    47    48    1
    22    50    51    1
    23    50    49    1
    24    39    40    1
    25    39    38    1
    26    23    24    1
    27    23    22    1
    28    48    49    2
    29     4     3    1
    30     4     5    1
    31     3     2    1
    32     6     5    1
    33     6     7    2
    34     1     2    1
    35    35    36    1
    36    35    22    1
    37    38    36    1
    38     7     8    1
    39    36    37    2
    40    22    21    1
    41    21    20    1
    42     8     9    1
    43     9    10    1
    44    20    18    1
    45    19    18    2
    46    18    17    1
    47    10    11    1
    48    11    12    1
    49    13    12    1
    50    13    14    1
    51    15    16    1
    52    15    14    1
    53    17    16    1
