@<TRIPOS>MOLECULE
/Users/xuhangdai/Desktop/Projects/OptimalTransport/extra_bio_ligands_boltz_af3/boltz_results_1ln1_DLP/1ln1_DLP_model_48_chainB.pdb
 54 53 0 0 0
SMALL
GASTEIGER

@<TRIPOS>ATOM
      1 C101       -5.3050    6.0170   -0.3990 C.3     0  LIG0        0.0000
      2 C110       -6.1910    5.0980    0.3630 C.3     0  LIG0        0.0000
      3 C118       -5.4340    4.1480    1.2140 C.3     0  LIG0        0.0003
      4 C114       -6.3110    3.2330    1.9630 C.3     0  LIG0        0.0047
      5 C106       -5.8830    1.8360    1.8370 C.3     0  LIG0        0.0257
      6  C95       -7.0510    0.9720    1.7090 C.2     0  LIG0       -0.0304
      7  C91       -7.0760   -0.2460    1.3110 C.2     0  LIG0       -0.0260
      8  C99       -5.9620   -1.0560    0.9760 C.3     0  LIG0        0.0513
      9  C93       -6.2510   -1.8680   -0.1210 C.2     0  LIG0       -0.0260
     10  C97       -5.3400   -2.7380   -0.5880 C.2     0  LIG0       -0.0304
     11 C108       -5.6080   -3.5590   -1.6810 C.3     0  LIG0        0.0257
     12 C116       -4.6100   -4.6240   -1.8020 C.3     0  LIG0        0.0047
     13 C122       -4.7650   -5.6570   -0.7520 C.3     0  LIG0        0.0003
     14 C124       -3.4610   -6.0780   -0.2030 C.3     0  LIG0        0.0000
     15 C120       -3.6010   -6.8830    1.0330 C.3     0  LIG0        0.0006
     16 C112       -2.2770   -7.2700    1.6030 C.3     0  LIG0        0.0116
     17 C104       -2.1780   -6.9380    3.0570 C.3     0  LIG0        0.1096
     18  C89       -1.8120   -5.5140    3.2480 C.2     0  LIG0        0.3171
     19  O81       -0.9890   -4.9780    2.5880 O.2     0  LIG0       -0.2501
     20  O85       -2.4530   -4.8610    4.2530 O.3     0  LIG0       -0.4444
     21 C126       -2.3010   -3.4730    4.3450 C.3     0  LIG0        0.2543
     22 C132       -3.1260   -2.8660    3.2630 C.3     0  LIG0        0.2420
     23 C127       -2.9590   -1.3450    3.1520 C.3     0  LIG0        0.1964
     24  O88       -1.8790   -0.8330    3.7980 O.3     0  LIG0       -0.3101
     25 P134       -0.9560    0.2700    3.1530 P.3     0  LIG0        0.2140
     26  O83       -1.5550    0.8500    1.9480 O.2     0  LIG0       -0.5172
     27  O84       -0.6070    1.2130    4.2040 O.3     0  LIG0       -0.4373
     28  O87        0.3480   -0.4660    2.7060 O.3     0  LIG0       -0.3163
     29 C103        0.8680   -1.3870    3.5390 C.3     0  LIG0        0.1271
     30 C131        2.2720   -1.6890    3.1770 C.3     0  LIG0       -0.0402
     31 N133        2.5390   -3.1110    3.0330 N.4     0  LIG0        0.3874
     32 C128        1.7860   -3.6530    1.8800 C.3     0  LIG0       -0.0959
     33 C129        2.1270   -3.8380    4.2550 C.3     0  LIG0       -0.0959
     34 C130        3.9450   -3.3190    2.8130 C.3     0  LIG0       -0.0959
     35  O86       -4.4670   -3.2190    3.3930 O.3     0  LIG0       -0.4457
     36  C90       -5.1610   -3.1380    4.5730 C.2     0  LIG0        0.3171
     37  O82       -4.6440   -2.8460    5.6100 O.2     0  LIG0       -0.2501
     38 C105       -6.6380   -3.4390    4.5090 C.3     0  LIG0        0.1096
     39 C113       -6.9560   -4.6440    5.3130 C.3     0  LIG0        0.0116
     40 C121       -6.4690   -5.8370    4.6340 C.3     0  LIG0        0.0006
     41 C125       -6.5760   -7.0020    5.5130 C.3     0  LIG0        0.0000
     42 C123       -5.4690   -7.0440    6.4970 C.3     0  LIG0        0.0000
     43 C117       -5.0130   -8.3860    6.7740 C.3     0  LIG0        0.0000
     44 C109       -4.3290   -8.9960    5.6590 C.3     0  LIG0        0.0000
     45  C98       -4.9820  -10.2140    5.3490 C.3     0  LIG0        0.0000
     46  C94       -5.2210  -10.7540    4.2250 C.3     0  LIG0        0.0000
     47 C100       -4.6290  -10.4260    3.0150 C.3     0  LIG0        0.0000
     48  C92       -5.6210  -10.1220    2.0870 C.3     0  LIG0        0.0000
     49  C96       -5.8860  -10.4000    0.9810 C.3     0  LIG0        0.0000
     50 C107       -6.1120   -9.9140   -0.3120 C.3     0  LIG0        0.0000
     51 C115       -7.4870   -9.4180   -0.5220 C.3     0  LIG0        0.0000
     52 C119       -7.5060   -7.9740   -0.7240 C.3     0  LIG0        0.0000
     53 C111       -8.8700   -7.4290   -0.7650 C.3     0  LIG0        0.0000
     54 C102       -8.8880   -5.9260   -0.9850 C.3     0  LIG0        0.0000
@<TRIPOS>BOND
     1    12    11    1
     2    12    13    1
     3    11    10    1
     4    54    53    1
     5    53    52    1
     6    13    14    1
     7    52    51    1
     8    10     9    2
     9    51    50    1
    10     1     2    1
    11    50    49    1
    12    14    15    1
    13     9     8    1
    14     2     3    1
    15     8     7    1
    16    49    48    1
    17    15    16    1
    18     3     4    1
    19     7     6    2
    20    16    17    1
    21     6     5    1
    22     5     4    1
    23    32    31    1
    24    26    25    2
    25    48    47    1
    26    19    18    2
    27    28    25    1
    28    28    29    1
    29    34    31    1
    30    47    46    1
    31    31    30    1
    32    31    33    1
    33    17    18    1
    34    23    22    1
    35    23    24    1
    36    25    24    1
    37    25    27    1
    38    30    29    1
    39    18    20    1
    40    22    35    1
    41    22    21    1
    42    35    36    1
    43    46    45    1
    44    20    21    1
    45    38    36    1
    46    38    39    1
    47    36    37    2
    48    40    39    1
    49    40    41    1
    50    45    44    1
    51    41    42    1
    52    44    43    1
    53    42    43    1
