@<TRIPOS>MOLECULE
/Users/xuhangdai/Desktop/Projects/OptimalTransport/extra_bio_ligands_boltz_af3/boltz_results_1ln1_DLP/1ln1_DLP_model_47_chainB.pdb
 54 53 0 0 0
SMALL
GASTEIGER

@<TRIPOS>ATOM
      1 C101        3.0060   -2.9740   -5.0320 C.3     0  LIG0        0.0000
      2 C110        4.3300   -2.8090   -4.3800 C.3     0  LIG0        0.0000
      3 C118        4.2870   -3.0470   -2.9200 C.3     0  LIG0        0.0003
      4 C114        5.6140   -3.0260   -2.2690 C.3     0  LIG0        0.0047
      5 C106        5.7770   -1.9030   -1.3320 C.3     0  LIG0        0.0257
      6  C95        7.1660   -1.4160   -1.3770 C.2     0  LIG0       -0.0304
      7  C91        7.5970   -0.2840   -0.8860 C.2     0  LIG0       -0.0260
      8  C99        6.8950    0.6070    0.0040 C.3     0  LIG0        0.0513
      9  C93        7.0570    1.9630   -0.3650 C.2     0  LIG0       -0.0260
     10  C97        6.9410    2.9410    0.5680 C.2     0  LIG0       -0.0304
     11 C108        6.9680    4.3130    0.2420 C.3     0  LIG0        0.0257
     12 C116        7.4380    5.1290    1.3800 C.3     0  LIG0        0.0047
     13 C122        6.5760    4.9520    2.5650 C.3     0  LIG0        0.0003
     14 C124        7.2840    5.1120    3.8490 C.3     0  LIG0        0.0000
     15 C120        6.3700    5.4570    4.9440 C.3     0  LIG0        0.0006
     16 C112        6.6540    4.8650    6.2870 C.3     0  LIG0        0.0116
     17 C104        6.9940    3.4280    6.2760 C.3     0  LIG0        0.1096
     18  C89        5.8430    2.4920    6.2560 C.2     0  LIG0        0.3171
     19  O81        4.7070    2.8180    6.3780 O.2     0  LIG0       -0.2501
     20  O85        6.1760    1.1770    6.1080 O.3     0  LIG0       -0.4444
     21 C126        5.3390    0.3290    5.3660 C.3     0  LIG0        0.2543
     22 C132        5.6510    0.5340    3.9380 C.3     0  LIG0        0.2420
     23 C127        4.7120   -0.1480    2.9530 C.3     0  LIG0        0.1964
     24  O88        3.8760   -1.0900    3.4600 O.3     0  LIG0       -0.3101
     25 P134        2.4210   -1.2850    2.8800 P.3     0  LIG0        0.2140
     26  O83        2.2910   -0.6690    1.5530 O.2     0  LIG0       -0.5172
     27  O84        2.1020   -2.7060    2.9730 O.3     0  LIG0       -0.4373
     28  O87        1.4500   -0.4920    3.8240 O.3     0  LIG0       -0.3163
     29 C103        1.5870   -0.5270    5.1710 C.3     0  LIG0        0.1271
     30 C131        0.4350    0.1180    5.8430 C.3     0  LIG0       -0.0402
     31 N133        0.7440    1.3170    6.6190 N.4     0  LIG0        0.3874
     32 C128        1.7370    1.0090    7.6590 C.3     0  LIG0       -0.0959
     33 C129        1.2940    2.3670    5.7360 C.3     0  LIG0       -0.0959
     34 C130       -0.4570    1.8180    7.2400 C.3     0  LIG0       -0.0959
     35  O86        6.9870    0.3090    3.6330 O.3     0  LIG0       -0.4457
     36  C90        7.7320   -0.7740    4.0170 C.2     0  LIG0        0.3171
     37  O82        7.2760   -1.6990    4.6160 O.2     0  LIG0       -0.2501
     38 C105        9.1860   -0.7120    3.6280 C.3     0  LIG0        0.1096
     39 C113       10.0760   -0.8610    4.8000 C.3     0  LIG0        0.0116
     40 C121       10.1400    0.3890    5.5300 C.3     0  LIG0        0.0006
     41 C125       10.3610    0.1990    6.9640 C.3     0  LIG0        0.0000
     42 C123       10.4780    1.5170    7.5700 C.3     0  LIG0        0.0003
     43 C117        9.8760    1.6480    8.8710 C.3     0  LIG0        0.0047
     44 C109        9.6040    3.0600    9.1490 C.3     0  LIG0        0.0257
     45  C98       10.8160    3.8490    9.0210 C.2     0  LIG0       -0.0304
     46  C94       10.9830    4.9940    8.4430 C.2     0  LIG0       -0.0260
     47 C100        9.9870    5.7360    7.7760 C.3     0  LIG0        0.0513
     48  C92       10.5580    6.9900    7.2900 C.2     0  LIG0       -0.0260
     49  C96       10.7590    7.2960    6.0410 C.2     0  LIG0       -0.0304
     50 C107       10.4130    6.4520    4.8880 C.3     0  LIG0        0.0257
     51 C115       11.2450    6.7720    3.7080 C.3     0  LIG0        0.0047
     52 C119       10.9930    5.8060    2.6180 C.3     0  LIG0        0.0003
     53 C111       12.0590    5.8040    1.6120 C.3     0  LIG0        0.0000
     54 C102       11.7820    4.8430    0.4730 C.3     0  LIG0        0.0000
@<TRIPOS>BOND
     1     1     2    1
     2     2     3    1
     3     3     4    1
     4     4     5    1
     5     6     5    1
     6     6     7    2
     7     7     8    1
     8     9     8    1
     9     9    10    2
    10    11    10    1
    11    11    12    1
    12    54    53    1
    13    12    13    1
    14    26    25    2
    15    53    52    1
    16    13    14    1
    17    52    51    1
    18    25    27    1
    19    25    24    1
    20    25    28    1
    21    23    24    1
    22    23    22    1
    23    38    36    1
    24    38    39    1
    25    35    22    1
    26    35    36    1
    27    51    50    1
    28    28    29    1
    29    14    15    1
    30    22    21    1
    31    36    37    2
    32    39    40    1
    33    50    49    1
    34    15    16    1
    35    29    30    1
    36    21    20    1
    37    40    41    1
    38    33    31    1
    39    30    31    1
    40    49    48    2
    41    20    18    1
    42    18    17    1
    43    18    19    2
    44    17    16    1
    45    31    34    1
    46    31    32    1
    47    41    42    1
    48    48    47    1
    49    42    43    1
    50    47    46    1
    51    46    45    2
    52    43    44    1
    53    45    44    1
