@<TRIPOS>MOLECULE
/Users/xuhangdai/Desktop/Projects/OptimalTransport/extra_bio_ligands_boltz_af3/boltz_results_1ln1_DLP/1ln1_DLP_model_26_chainB.pdb
 54 53 0 0 0
SMALL
GASTEIGER

@<TRIPOS>ATOM
      1 C101       10.4710    1.3090   -2.8870 C.3     0  LIG0        0.0000
      2 C110       11.1970    1.3910   -1.6000 C.3     0  LIG0        0.0000
      3 C118       10.3280    1.8660   -0.5070 C.3     0  LIG0        0.0003
      4 C114       11.1100    2.1400    0.7070 C.3     0  LIG0        0.0047
      5 C106       10.5490    1.4200    1.8470 C.3     0  LIG0        0.0257
      6  C95       11.3270    1.7250    3.0410 C.2     0  LIG0       -0.0304
      7  C91       11.2710    0.9820    4.0980 C.2     0  LIG0       -0.0260
      8  C99       10.4480   -0.1960    4.2410 C.3     0  LIG0        0.0513
      9  C93       11.0970   -1.0760    5.1610 C.2     0  LIG0       -0.0260
     10  C97       10.5950   -2.1550    5.6800 C.2     0  LIG0       -0.0304
     11 C108        9.2410   -2.6200    5.5230 C.3     0  LIG0        0.0257
     12 C116        9.3140   -4.0110    5.1250 C.3     0  LIG0        0.0047
     13 C122        8.2070   -4.3620    4.2870 C.3     0  LIG0        0.0003
     14 C124        8.2520   -3.6370    3.0050 C.3     0  LIG0        0.0000
     15 C120        8.7910   -4.4630    1.9540 C.3     0  LIG0        0.0006
     16 C112        8.2480   -4.0080    0.6900 C.3     0  LIG0        0.0116
     17 C104        6.9340   -4.6400    0.4510 C.3     0  LIG0        0.1096
     18  C89        6.0080   -3.6660   -0.1450 C.2     0  LIG0        0.3171
     19  O81        6.2610   -3.0980   -1.1440 O.2     0  LIG0       -0.2501
     20  O85        4.8680   -3.4870    0.5070 O.3     0  LIG0       -0.4444
     21 C126        3.9110   -2.5860   -0.0210 C.3     0  LIG0        0.2543
     22 C132        3.1500   -2.0230    1.1320 C.3     0  LIG0        0.2420
     23 C127        2.0250   -1.1290    0.6790 C.3     0  LIG0        0.1964
     24  O88        0.8880   -1.8940    0.7170 O.3     0  LIG0       -0.3101
     25 P134       -0.5040   -1.2110    0.8400 P.3     0  LIG0        0.2140
     26  O83       -0.6670   -0.2030   -0.2060 O.2     0  LIG0       -0.5172
     27  O84       -1.5100   -2.2640    0.8620 O.3     0  LIG0       -0.4373
     28  O87       -0.5530   -0.4670    2.2240 O.3     0  LIG0       -0.3163
     29 C103       -0.3010   -1.1420    3.3680 C.3     0  LIG0        0.1271
     30 C131       -0.8630   -0.3910    4.5130 C.3     0  LIG0       -0.0402
     31 N133        0.1110    0.1280    5.4550 N.4     0  LIG0        0.3874
     32 C128        0.9210   -0.9620    6.0040 C.3     0  LIG0       -0.0959
     33 C129        1.0240    1.0770    4.7950 C.3     0  LIG0       -0.0959
     34 C130       -0.5620    0.7990    6.5240 C.3     0  LIG0       -0.0959
     35  O86        3.9990   -1.2930    1.9620 O.3     0  LIG0       -0.4457
     36  C90        4.1120   -1.7290    3.2460 C.2     0  LIG0        0.3171
     37  O82        3.2860   -2.4450    3.7090 O.2     0  LIG0       -0.2501
     38 C105        5.3020   -1.2960    4.0320 C.3     0  LIG0        0.1096
     39 C113        5.4620    0.1690    4.0790 C.3     0  LIG0        0.0116
     40 C121        6.2390    0.5960    2.9030 C.3     0  LIG0        0.0006
     41 C125        6.7100    2.0150    3.0360 C.3     0  LIG0        0.0000
     42 C123        7.2430    2.5100    1.7210 C.3     0  LIG0        0.0003
     43 C117        6.1680    2.9830    0.8220 C.3     0  LIG0        0.0047
     44 C109        6.5380    2.8250   -0.5970 C.3     0  LIG0        0.0257
     45  C98        5.4300    2.2830   -1.2770 C.2     0  LIG0       -0.0304
     46  C94        5.5680    1.1190   -1.9340 C.2     0  LIG0       -0.0260
     47 C100        4.4410    0.6640   -2.6280 C.3     0  LIG0        0.0513
     48  C92        4.7360   -0.5840   -3.3200 C.2     0  LIG0       -0.0260
     49  C96        3.8650   -1.1470   -4.0860 C.2     0  LIG0       -0.0304
     50 C107        2.4990   -0.6130   -4.2790 C.3     0  LIG0        0.0257
     51 C115        1.7990   -1.3350   -5.3570 C.3     0  LIG0        0.0047
     52 C119        0.3410   -1.0940   -5.2670 C.3     0  LIG0        0.0003
     53 C111       -0.2920   -0.9850   -6.5780 C.3     0  LIG0        0.0000
     54 C102       -1.7730   -0.7500   -6.4650 C.3     0  LIG0        0.0000
@<TRIPOS>BOND
     1    53    54    1
     2    53    52    1
     3    51    52    1
     4    51    50    1
     5    50    49    1
     6    49    48    2
     7    48    47    1
     8     1     2    1
     9    47    46    1
    10    46    45    2
    11     2     3    1
    12    45    44    1
    13    19    18    2
    14    44    43    1
    15     3     4    1
    16    26    25    2
    17    18    17    1
    18    18    20    1
    19    21    20    1
    20    21    22    1
    21    17    16    1
    22    23    24    1
    23    23    22    1
    24    16    15    1
    25     4     5    1
    26    24    25    1
    27    43    42    1
    28    25    27    1
    29    25    28    1
    30    22    35    1
    31    42    41    1
    32     5     6    1
    33    15    14    1
    34    35    36    1
    35    28    29    1
    36    40    41    1
    37    40    39    1
    38    14    13    1
    39     6     7    2
    40    36    37    2
    41    36    38    1
    42    29    30    1
    43    38    39    1
    44     7     8    1
    45     8     9    1
    46    13    12    1
    47    30    31    1
    48    33    31    1
    49    12    11    1
    50     9    10    2
    51    31    32    1
    52    31    34    1
    53    11    10    1
