@<TRIPOS>MOLECULE
/Users/xuhangdai/Desktop/Projects/OptimalTransport/extra_bio_ligands_boltz_af3/boltz_results_1ln1_DLP/1ln1_DLP_model_24_chainB.pdb
 54 53 0 0 0
SMALL
GASTEIGER

@<TRIPOS>ATOM
      1 C101       -7.4610   -2.7750   -9.8330 C.3     0  LIG0        0.0000
      2 C110       -7.5210   -1.3460  -10.2030 C.3     0  LIG0        0.0000
      3 C118       -6.9400   -0.4490   -9.1950 C.3     0  LIG0        0.0003
      4 C114       -7.3960    0.9390   -9.3720 C.3     0  LIG0        0.0047
      5 C106       -6.3530    1.7830   -9.9480 C.3     0  LIG0        0.0257
      6  C95       -6.8600    3.1330  -10.2000 C.2     0  LIG0       -0.0307
      7  C91       -6.1090    4.0140  -10.8060 C.2     0  LIG0       -0.0307
      8  C99       -4.8960    3.6190  -11.4790 C.3     0  LIG0        0.0257
      9  C93       -3.9570    4.6880  -11.5740 C.3     0  LIG0        0.0047
     10  C97       -2.9000    4.4520  -12.4080 C.3     0  LIG0        0.0003
     11 C108       -1.5660    4.6550  -11.9810 C.3     0  LIG0        0.0000
     12 C116       -0.6730    3.8920  -12.8680 C.3     0  LIG0        0.0000
     13 C122        0.2710    3.0550  -12.1410 C.3     0  LIG0        0.0000
     14 C124       -0.3670    1.9140  -11.4350 C.3     0  LIG0        0.0000
     15 C120       -0.5000    0.7440  -12.2900 C.3     0  LIG0        0.0006
     16 C112       -0.8180   -0.4500  -11.5090 C.3     0  LIG0        0.0116
     17 C104        0.3660   -0.9680  -10.7870 C.3     0  LIG0        0.1096
     18  C89       -0.0160   -1.4700   -9.4510 C.2     0  LIG0        0.3171
     19  O81       -0.9420   -2.1800   -9.2840 O.2     0  LIG0       -0.2501
     20  O85        0.7700   -1.0840   -8.4530 O.3     0  LIG0       -0.4444
     21 C126        0.3960   -1.3220   -7.1120 C.3     0  LIG0        0.2543
     22 C132        0.7740   -0.1110   -6.3090 C.3     0  LIG0        0.2420
     23 C127        0.5920   -0.3280   -4.8230 C.3     0  LIG0        0.1964
     24  O88        1.8410   -0.5450   -4.2880 O.3     0  LIG0       -0.3101
     25 P134        2.1320   -0.4300   -2.7590 P.3     0  LIG0        0.2140
     26  O83        1.1070   -1.1270   -1.9910 O.3     0  LIG0       -0.4373
     27  O84        3.5060   -0.8860   -2.5470 O.2     0  LIG0       -0.5172
     28  O87        2.0660    1.0950   -2.3760 O.3     0  LIG0       -0.3163
     29 C103        2.6800    2.0340   -3.1330 C.3     0  LIG0        0.1271
     30 C131        2.8650    3.2900   -2.3660 C.3     0  LIG0       -0.0402
     31 N133        2.1870    4.4580   -2.9120 N.4     0  LIG0        0.3874
     32 C128        0.7320    4.2030   -3.0370 C.3     0  LIG0       -0.0959
     33 C129        2.7230    4.7720   -4.2430 C.3     0  LIG0       -0.0959
     34 C130        2.3890    5.5830   -2.0430 C.3     0  LIG0       -0.0959
     35  O86        0.0090    0.9790   -6.7080 O.3     0  LIG0       -0.4457
     36  C90        0.6460    2.1300   -7.0680 C.2     0  LIG0        0.3171
     37  O82        1.7840    2.3060   -6.7840 O.2     0  LIG0       -0.2501
     38 C105       -0.1510    3.1410   -7.8380 C.3     0  LIG0        0.1096
     39 C113       -1.3410    3.6600   -7.1330 C.3     0  LIG0        0.0116
     40 C121       -2.3160    2.5630   -6.9510 C.3     0  LIG0        0.0006
     41 C125       -3.7330    2.9710   -6.7830 C.3     0  LIG0        0.0000
     42 C123       -4.6020    1.7400   -6.6560 C.3     0  LIG0        0.0003
     43 C117       -4.8740    1.3030   -5.2720 C.3     0  LIG0        0.0047
     44 C109       -4.5930   -0.1020   -4.8830 C.3     0  LIG0        0.0257
     45  C98       -4.7600   -1.0640   -5.8890 C.2     0  LIG0       -0.0304
     46  C94       -4.0380   -2.1340   -6.0700 C.2     0  LIG0       -0.0260
     47 C100       -3.1230   -2.7530   -5.2000 C.3     0  LIG0        0.0513
     48  C92       -2.5560   -3.9040   -5.8990 C.2     0  LIG0       -0.0260
     49  C96       -1.8150   -4.8300   -5.3910 C.2     0  LIG0       -0.0304
     50 C107       -1.3690   -4.9510   -4.0010 C.3     0  LIG0        0.0257
     51 C115       -0.5360   -6.1720   -3.8460 C.3     0  LIG0        0.0047
     52 C119        0.0510   -6.2940   -2.4850 C.3     0  LIG0        0.0003
     53 C111       -0.6460   -7.2820   -1.6530 C.3     0  LIG0        0.0000
     54 C102        0.0590   -7.5380   -0.3530 C.3     0  LIG0        0.0000
@<TRIPOS>BOND
     1    12    13    1
     2    12    11    1
     3    10    11    1
     4    10     9    1
     5    15    16    1
     6    15    14    1
     7    13    14    1
     8     9     8    1
     9    16    17    1
    10     8     7    1
    11     7     6    2
    12    17    18    1
    13     2     1    1
    14     2     3    1
    15     6     5    1
    16     5     4    1
    17    18    19    2
    18    18    20    1
    19     4     3    1
    20    20    21    1
    21    38    39    1
    22    38    36    1
    23    39    40    1
    24    21    22    1
    25    36    37    2
    26    36    35    1
    27    40    41    1
    28    41    42    1
    29    35    22    1
    30    42    43    1
    31    22    23    1
    32    46    45    2
    33    46    47    1
    34    48    49    2
    35    48    47    1
    36    45    44    1
    37    49    50    1
    38    43    44    1
    39    23    24    1
    40    24    25    1
    41    33    31    1
    42    50    51    1
    43    51    52    1
    44    29    28    1
    45    29    30    1
    46    32    31    1
    47    31    30    1
    48    31    34    1
    49    25    27    2
    50    25    28    1
    51    25    26    1
    52    52    53    1
    53    53    54    1
