@<TRIPOS>MOLECULE
/Users/xuhangdai/Desktop/Projects/OptimalTransport/extra_bio_ligands_boltz_af3/boltz_results_1ln1_DLP/1ln1_DLP_model_30_chainB.pdb
 54 53 0 0 0
SMALL
GASTEIGER

@<TRIPOS>ATOM
      1 C101        6.5900  -11.0300    0.4370 C.3     0  LIG0        0.0000
      2 C110        7.1570  -11.2540    1.7920 C.3     0  LIG0        0.0000
      3 C118        6.9880  -10.0740    2.6730 C.3     0  LIG0        0.0000
      4 C114        7.6400  -10.2980    3.9840 C.3     0  LIG0        0.0000
      5 C106        6.9350   -9.5450    5.0330 C.3     0  LIG0        0.0000
      6  C95        7.4660   -9.8820    6.3760 C.3     0  LIG0        0.0000
      7  C91        6.6360  -10.0370    7.3940 C.3     0  LIG0        0.0000
      8  C99        5.2400  -10.3550    7.1530 C.3     0  LIG0        0.0000
      9  C93        4.4240  -10.0290    8.2910 C.3     0  LIG0        0.0000
     10  C97        3.2520  -10.7250    8.3520 C.3     0  LIG0        0.0000
     11 C108        2.0830  -10.1450    8.9460 C.3     0  LIG0        0.0000
     12 C116        0.9000  -10.5740    8.1850 C.3     0  LIG0        0.0000
     13 C122        0.6890   -9.6670    7.0470 C.3     0  LIG0        0.0000
     14 C124        0.0330  -10.3610    5.9220 C.3     0  LIG0        0.0000
     15 C120        1.0400  -10.8170    4.9710 C.3     0  LIG0        0.0006
     16 C112        0.4840  -11.0710    3.6390 C.3     0  LIG0        0.0116
     17 C104       -0.5810  -10.1250    3.2760 C.3     0  LIG0        0.1096
     18  C89       -0.0970   -9.0640    2.3520 C.2     0  LIG0        0.3171
     19  O81        0.7740   -9.2380    1.5680 O.2     0  LIG0       -0.2501
     20  O85       -0.7490   -7.9030    2.4590 O.3     0  LIG0       -0.4444
     21 C126       -0.2860   -6.7810    1.7390 C.3     0  LIG0        0.2543
     22 C132       -0.2600   -5.6170    2.6810 C.3     0  LIG0        0.2420
     23 C127       -0.0290   -4.3090    1.9390 C.3     0  LIG0        0.1964
     24  O88       -1.2730   -3.7310    1.7430 O.3     0  LIG0       -0.3101
     25 P134       -1.3850   -2.2070    1.4050 P.3     0  LIG0        0.2140
     26  O83       -0.4820   -1.8650    0.2970 O.2     0  LIG0       -0.5172
     27  O84       -2.8020   -1.8930    1.1930 O.3     0  LIG0       -0.4373
     28  O87       -0.9010   -1.4180    2.6830 O.3     0  LIG0       -0.3163
     29 C103       -1.5200   -1.6380    3.8900 C.3     0  LIG0        0.1271
     30 C131       -1.2140   -0.5060    4.7970 C.3     0  LIG0       -0.0402
     31 N133       -0.1290   -0.7600    5.7540 N.4     0  LIG0        0.3874
     32 C128       -0.5240   -1.8210    6.6890 C.3     0  LIG0       -0.0959
     33 C129        1.1020   -1.1870    5.0520 C.3     0  LIG0       -0.0959
     34 C130        0.1640    0.4450    6.4810 C.3     0  LIG0       -0.0959
     35  O86        0.7560   -5.7860    3.6310 O.3     0  LIG0       -0.4457
     36  C90        0.4000   -5.6470    4.9450 C.2     0  LIG0        0.3171
     37  O82       -0.6490   -5.1600    5.2410 O.2     0  LIG0       -0.2501
     38 C105        1.3510   -6.1430    5.9960 C.3     0  LIG0        0.1096
     39 C113        2.7020   -5.5650    5.8880 C.3     0  LIG0        0.0116
     40 C121        3.4520   -6.3210    4.8600 C.3     0  LIG0        0.0006
     41 C125        4.9250   -6.0400    4.9070 C.3     0  LIG0        0.0000
     42 C123        5.5930   -6.6330    3.6960 C.3     0  LIG0        0.0003
     43 C117        5.6710   -5.6590    2.5700 C.3     0  LIG0        0.0047
     44 C109        5.6890   -6.3250    1.2610 C.3     0  LIG0        0.0257
     45  C98        4.5750   -5.8570    0.5260 C.2     0  LIG0       -0.0304
     46  C94        3.7940   -6.7850   -0.0640 C.2     0  LIG0       -0.0260
     47 C100        2.7470   -6.2760   -0.8560 C.3     0  LIG0        0.0513
     48  C92        2.1120   -7.3790   -1.5750 C.2     0  LIG0       -0.0260
     49  C96        1.1640   -7.1900   -2.4370 C.2     0  LIG0       -0.0304
     50 C107        0.5650   -5.8560   -2.7310 C.3     0  LIG0        0.0257
     51 C115        0.1020   -5.8080   -4.1410 C.3     0  LIG0        0.0047
     52 C119       -0.5050   -4.4780   -4.4550 C.3     0  LIG0        0.0003
     53 C111       -0.5840   -4.2630   -5.9110 C.3     0  LIG0        0.0000
     54 C102       -1.1230   -2.9030   -6.2490 C.3     0  LIG0        0.0000
@<TRIPOS>BOND
     1    54    53    1
     2    53    52    1
     3    52    51    1
     4    51    50    1
     5    50    49    1
     6    49    48    2
     7    48    47    1
     8    47    46    1
     9    46    45    2
    10    26    25    2
    11     1     2    1
    12    45    44    1
    13    27    25    1
    14    44    43    1
    15    25    24    1
    16    25    28    1
    17    19    18    2
    18    21    20    1
    19    21    22    1
    20    24    23    1
    21     2     3    1
    22    23    22    1
    23    18    20    1
    24    18    17    1
    25    43    42    1
    26     3     4    1
    27    22    35    1
    28    28    29    1
    29    17    16    1
    30    35    36    1
    31    16    15    1
    32    42    41    1
    33    29    30    1
    34     4     5    1
    35    30    31    1
    36    40    41    1
    37    40    39    1
    38    36    37    2
    39    36    38    1
    40    15    14    1
    41     5     6    1
    42    33    31    1
    43    31    34    1
    44    31    32    1
    45    39    38    1
    46    14    13    1
    47     6     7    1
    48    13    12    1
    49     8     7    1
    50     8     9    1
    51    12    11    1
    52     9    10    1
    53    10    11    1
