@<TRIPOS>MOLECULE
/Users/xuhangdai/Desktop/Projects/OptimalTransport/extra_bio_ligands_boltz_af3/boltz_results_1ln1_DLP/1ln1_DLP_model_36_chainB.pdb
 54 53 0 0 0
SMALL
GASTEIGER

@<TRIPOS>ATOM
      1 C101        4.9440   -9.3110   -4.1800 C.3     0  LIG0        0.0000
      2 C110        4.1120   -9.4530   -5.3980 C.3     0  LIG0        0.0000
      3 C118        2.7000   -9.1280   -5.1310 C.3     0  LIG0        0.0003
      4 C114        1.8700   -9.4270   -6.3070 C.3     0  LIG0        0.0047
      5 C106        0.5490   -8.8000   -6.2030 C.3     0  LIG0        0.0257
      6  C95       -0.2790   -9.2350   -7.3410 C.2     0  LIG0       -0.0307
      7  C91       -0.5050   -8.4880   -8.3760 C.2     0  LIG0       -0.0307
      8  C99        0.0620   -7.1850   -8.5670 C.3     0  LIG0        0.0257
      9  C93       -0.6440   -6.5110   -9.6180 C.3     0  LIG0        0.0047
     10  C97        0.0970   -5.6920  -10.3810 C.3     0  LIG0        0.0003
     11 C108       -0.3410   -4.3730  -10.7000 C.3     0  LIG0        0.0000
     12 C116        0.8310   -3.5420  -10.9890 C.3     0  LIG0        0.0000
     13 C122        1.4010   -3.0540   -9.7390 C.3     0  LIG0        0.0000
     14 C124        2.7940   -3.4910   -9.6180 C.3     0  LIG0        0.0000
     15 C120        3.2230   -3.4160   -8.2360 C.3     0  LIG0        0.0006
     16 C112        4.6130   -3.7390   -8.1360 C.3     0  LIG0        0.0116
     17 C104        5.3310   -2.6110   -7.5560 C.3     0  LIG0        0.1096
     18  C89        5.1560   -2.5940   -6.0900 C.2     0  LIG0        0.3171
     19  O81        5.5920   -3.4480   -5.3940 O.2     0  LIG0       -0.2501
     20  O85        4.5020   -1.5490   -5.6080 O.3     0  LIG0       -0.4444
     21 C126        4.3340   -1.4570   -4.2090 C.3     0  LIG0        0.2543
     22 C132        2.9970   -0.8480   -3.9370 C.3     0  LIG0        0.2420
     23 C127        2.8510   -0.5470   -2.4600 C.3     0  LIG0        0.1964
     24  O88        2.8280    0.8240   -2.3420 O.3     0  LIG0       -0.3101
     25 P134        2.3220    1.4900   -1.0180 P.3     0  LIG0        0.2140
     26  O83        2.8270    0.7560    0.1390 O.3     0  LIG0       -0.4373
     27  O84        2.6590    2.9120   -1.0750 O.2     0  LIG0       -0.5172
     28  O87        0.7640    1.3710   -1.0140 O.3     0  LIG0       -0.3163
     29 C103        0.0640    1.6940   -2.1230 C.3     0  LIG0        0.1271
     30 C131       -1.3160    2.0640   -1.7430 C.3     0  LIG0       -0.0402
     31 N133       -2.3530    1.3730   -2.4850 N.4     0  LIG0        0.3874
     32 C128       -2.2280   -0.0920   -2.3150 C.3     0  LIG0       -0.0959
     33 C129       -2.2360    1.6850   -3.9140 C.3     0  LIG0       -0.0959
     34 C130       -3.6400    1.7920   -2.0130 C.3     0  LIG0       -0.0959
     35  O86        1.9620   -1.7150   -4.3150 O.3     0  LIG0       -0.4457
     36  C90        1.0720   -1.2570   -5.2540 C.2     0  LIG0        0.3171
     37  O82        1.0490   -0.1090   -5.5460 O.2     0  LIG0       -0.2501
     38 C105        0.1550   -2.2390   -5.9060 C.3     0  LIG0        0.1096
     39 C113       -0.4630   -3.1820   -4.9720 C.3     0  LIG0        0.0116
     40 C121        0.4590   -4.3080   -4.7480 C.3     0  LIG0        0.0006
     41 C125       -0.2390   -5.4600   -4.1030 C.3     0  LIG0        0.0000
     42 C123        0.7610   -6.4220   -3.5370 C.3     0  LIG0        0.0003
     43 C117        1.1280   -6.1000   -2.1410 C.3     0  LIG0        0.0047
     44 C109        2.5090   -6.4250   -1.8510 C.3     0  LIG0        0.0257
     45  C98        3.1580   -5.2400   -1.5140 C.2     0  LIG0       -0.0304
     46  C94        4.4830   -5.1930   -1.6650 C.2     0  LIG0       -0.0260
     47 C100        5.0840   -4.0050   -1.2530 C.3     0  LIG0        0.0513
     48  C92        6.5060   -4.0650   -1.5440 C.2     0  LIG0       -0.0260
     49  C96        7.3400   -3.1900   -1.1180 C.2     0  LIG0       -0.0304
     50 C107        6.9900   -2.0350   -0.2710 C.3     0  LIG0        0.0257
     51 C115        8.1860   -1.5940    0.4670 C.3     0  LIG0        0.0047
     52 C119        7.8090   -0.7290    1.6150 C.3     0  LIG0        0.0003
     53 C111        8.9160   -0.6290    2.5800 C.3     0  LIG0        0.0000
     54 C102        8.5760    0.3010    3.7070 C.3     0  LIG0        0.0000
@<TRIPOS>BOND
     1    12    11    1
     2    12    13    1
     3    11    10    1
     4    10     9    1
     5    13    14    1
     6    14    15    1
     7     9     8    1
     8     8     7    1
     9     7     6    2
    10    15    16    1
    11    16    17    1
    12    17    18    1
    13     6     5    1
    14     4     5    1
    15     4     3    1
    16    18    20    1
    17    18    19    2
    18    38    36    1
    19    38    39    1
    20    20    21    1
    21    37    36    2
    22     2     3    1
    23     2     1    1
    24    36    35    1
    25    39    40    1
    26    40    41    1
    27    35    22    1
    28    21    22    1
    29    41    42    1
    30    22    23    1
    31    33    31    1
    32    42    43    1
    33    31    32    1
    34    31    34    1
    35    31    30    1
    36    23    24    1
    37    24    25    1
    38    43    44    1
    39    29    30    1
    40    29    28    1
    41    44    45    1
    42    46    45    2
    43    46    47    1
    44    48    47    1
    45    48    49    2
    46    49    50    1
    47    27    25    2
    48    25    28    1
    49    25    26    1
    50    50    51    1
    51    51    52    1
    52    52    53    1
    53    53    54    1
