@<TRIPOS>MOLECULE
/Users/xuhangdai/Desktop/Projects/OptimalTransport/extra_bio_ligands_boltz_af3/boltz_results_1ln1_DLP/1ln1_DLP_model_20_chainB.pdb
 54 53 0 0 0
SMALL
GASTEIGER

@<TRIPOS>ATOM
      1 C101       10.5900   -3.4450   -4.7700 C.3     0  LIG0        0.0000
      2 C110       10.9030   -4.2660   -3.5790 C.3     0  LIG0        0.0000
      3 C118        9.7680   -5.0670   -3.1140 C.3     0  LIG0        0.0003
      4 C114       10.1880   -6.0880   -2.1250 C.3     0  LIG0        0.0047
      5 C106        9.0490   -6.9270   -1.7470 C.3     0  LIG0        0.0257
      6  C95        9.4770   -8.1940   -1.1140 C.2     0  LIG0       -0.0307
      7  C91        8.6950   -9.2610   -1.1810 C.2     0  LIG0       -0.0307
      8  C99        7.5560   -9.2420   -2.0590 C.3     0  LIG0        0.0257
      9  C93        6.7730  -10.4460   -2.0080 C.3     0  LIG0        0.0047
     10  C97        5.9770  -10.5740   -3.0730 C.3     0  LIG0        0.0003
     11 C108        4.7830  -11.3030   -3.1730 C.3     0  LIG0        0.0000
     12 C116        4.0090  -10.7980   -4.3240 C.3     0  LIG0        0.0000
     13 C122        3.4740   -9.4480   -4.0550 C.3     0  LIG0        0.0000
     14 C124        3.4920   -8.5810   -5.2570 C.3     0  LIG0        0.0000
     15 C120        4.5140   -7.5270   -5.1510 C.3     0  LIG0        0.0006
     16 C112        4.6730   -6.8000   -6.4160 C.3     0  LIG0        0.0116
     17 C104        3.5120   -5.9400   -6.7320 C.3     0  LIG0        0.1096
     18  C89        3.5880   -4.6370   -6.0200 C.2     0  LIG0        0.3171
     19  O81        4.5030   -3.8870   -6.1550 O.2     0  LIG0       -0.2501
     20  O85        2.5430   -4.3610   -5.2440 O.3     0  LIG0       -0.4444
     21 C126        2.5280   -3.1640   -4.4980 C.3     0  LIG0        0.2543
     22 C132        1.7410   -3.4090   -3.2540 C.3     0  LIG0        0.2420
     23 C127        1.4340   -2.1010   -2.5560 C.3     0  LIG0        0.1964
     24  O88        0.0610   -2.0350   -2.4100 O.3     0  LIG0       -0.3101
     25 P134       -0.6140   -0.9310   -1.5390 P.3     0  LIG0        0.2140
     26  O83        0.2740    0.2120   -1.3570 O.3     0  LIG0       -0.4373
     27  O84       -1.9210   -0.6330   -2.1340 O.2     0  LIG0       -0.5172
     28  O87       -0.8580   -1.5740   -0.1300 O.3     0  LIG0       -0.3163
     29 C103       -1.0000   -2.9060   -0.0010 C.3     0  LIG0        0.1271
     30 C131       -1.6020   -3.2360    1.3150 C.3     0  LIG0       -0.0402
     31 N133       -1.0560   -4.4270    1.9390 N.4     0  LIG0        0.3874
     32 C128        0.4130   -4.3040    2.0930 C.3     0  LIG0       -0.0959
     33 C129       -1.3490   -5.6240    1.1030 C.3     0  LIG0       -0.0959
     34 C130       -1.6590   -4.6030    3.2340 C.3     0  LIG0       -0.0959
     35  O86        2.4470   -4.2400   -2.3620 O.3     0  LIG0       -0.4457
     36  C90        1.8630   -5.4210   -1.9680 C.2     0  LIG0        0.3171
     37  O82        0.7020   -5.6040   -2.1560 O.2     0  LIG0       -0.2501
     38 C105        2.7270   -6.4620   -1.3160 C.3     0  LIG0        0.1096
     39 C113        3.6670   -5.9270   -0.3130 C.3     0  LIG0        0.0116
     40 C121        4.9260   -5.5200   -0.9720 C.3     0  LIG0        0.0006
     41 C125        5.8480   -4.8190   -0.0240 C.3     0  LIG0        0.0000
     42 C123        6.9170   -4.0860   -0.7670 C.3     0  LIG0        0.0000
     43 C117        7.2010   -2.7340   -0.2230 C.3     0  LIG0        0.0000
     44 C109        6.5340   -1.6610   -0.9520 C.3     0  LIG0        0.0000
     45  C98        6.8900   -1.6700   -2.3120 C.3     0  LIG0        0.0003
     46  C94        6.0980   -1.4080   -3.3070 C.3     0  LIG0        0.0047
     47 C100        5.3490   -0.2450   -3.4750 C.3     0  LIG0        0.0257
     48  C92        5.3100    0.0520   -4.9020 C.2     0  LIG0       -0.0307
     49  C96        4.5780    0.9600   -5.4450 C.2     0  LIG0       -0.0307
     50 C107        3.5270    1.7270   -4.7640 C.3     0  LIG0        0.0257
     51 C115        3.3080    3.0030   -5.4730 C.3     0  LIG0        0.0047
     52 C119        2.2180    3.7780   -4.8470 C.3     0  LIG0        0.0003
     53 C111        2.2750    5.2000   -5.2410 C.3     0  LIG0        0.0000
     54 C102        1.1040    5.9770   -4.7250 C.3     0  LIG0        0.0000
@<TRIPOS>BOND
     1    17    16    1
     2    17    18    1
     3    16    15    1
     4    19    18    2
     5    18    20    1
     6    51    52    1
     7    51    50    1
     8    49    48    2
     9    49    50    1
    10    14    15    1
    11    14    13    1
    12    20    21    1
    13    53    52    1
    14    53    54    1
    15    48    47    1
    16     1     2    1
    17    21    22    1
    18    12    13    1
    19    12    11    1
    20     2     3    1
    21    47    46    1
    22    46    45    1
    23    22    23    1
    24    22    35    1
    25    11    10    1
    26     3     4    1
    27    10     9    1
    28    23    24    1
    29    24    25    1
    30    35    36    1
    31    45    44    1
    32    37    36    2
    33    27    25    2
    34     4     5    1
    35     8     9    1
    36     8     7    1
    37    36    38    1
    38     5     6    1
    39    25    26    1
    40    25    28    1
    41    38    39    1
    42     7     6    2
    43    40    39    1
    44    40    41    1
    45    44    43    1
    46    42    43    1
    47    42    41    1
    48    28    29    1
    49    29    30    1
    50    33    31    1
    51    30    31    1
    52    31    32    1
    53    31    34    1
