@<TRIPOS>MOLECULE
/Users/xuhangdai/Desktop/Projects/OptimalTransport/extra_bio_ligands_boltz_af3/boltz_results_1ln1_DLP/1ln1_DLP_model_49_chainB.pdb
 54 53 0 0 0
SMALL
GASTEIGER

@<TRIPOS>ATOM
      1 C101       -6.1340    2.0490    5.4490 C.3     0  LIG0        0.0000
      2 C110       -4.9140    1.5230    6.1070 C.3     0  LIG0        0.0000
      3 C118       -4.5680    0.1660    5.6210 C.3     0  LIG0        0.0003
      4 C114       -3.2590   -0.3130    6.1050 C.3     0  LIG0        0.0047
      5 C106       -2.8410   -1.5520    5.4160 C.3     0  LIG0        0.0257
      6  C95       -3.6410   -2.6900    5.8810 C.2     0  LIG0       -0.0304
      7  C91       -3.6940   -3.8280    5.2840 C.2     0  LIG0       -0.0260
      8  C99       -2.9680   -4.1910    4.1120 C.3     0  LIG0        0.0513
      9  C93       -3.6490   -5.1880    3.3910 C.2     0  LIG0       -0.0260
     10  C97       -3.1400   -5.6020    2.2080 C.2     0  LIG0       -0.0304
     11 C108       -3.6470   -6.7000    1.5260 C.3     0  LIG0        0.0257
     12 C116       -2.8880   -6.9490    0.2990 C.3     0  LIG0        0.0047
     13 C122       -1.6430   -7.6980    0.5470 C.3     0  LIG0        0.0003
     14 C124       -0.7640   -7.7390   -0.6580 C.3     0  LIG0        0.0000
     15 C120        0.3770   -8.6840   -0.5370 C.3     0  LIG0        0.0006
     16 C112        1.7050   -8.0700   -0.8340 C.3     0  LIG0        0.0116
     17 C104        2.4820   -7.7990    0.4290 C.3     0  LIG0        0.1096
     18  C89        2.6120   -6.3540    0.6280 C.2     0  LIG0        0.3171
     19  O81        3.5340   -5.7180    0.2280 O.2     0  LIG0       -0.2501
     20  O85        1.6150   -5.8110    1.3130 O.3     0  LIG0       -0.4444
     21 C126        1.3740   -4.4620    1.1590 C.3     0  LIG0        0.2543
     22 C132        0.5170   -4.0030    2.2870 C.3     0  LIG0        0.2420
     23 C127        0.0430   -2.6010    2.0250 C.3     0  LIG0        0.1964
     24  O88        0.8540   -1.6510    2.6940 O.3     0  LIG0       -0.3101
     25 P134        0.9000   -0.1620    2.2370 P.3     0  LIG0        0.2140
     26  O83       -0.4520    0.3160    1.9050 O.2     0  LIG0       -0.5172
     27  O84        1.6160    0.6130    3.2370 O.3     0  LIG0       -0.4373
     28  O87        1.7430   -0.1240    0.9220 O.3     0  LIG0       -0.3163
     29 C103        3.0080   -0.6170    0.9040 C.3     0  LIG0        0.1271
     30 C131        3.6910   -0.2240   -0.3540 C.3     0  LIG0       -0.0402
     31 N133        4.0030   -1.3290   -1.2540 N.4     0  LIG0        0.3874
     32 C128        4.8650   -2.3080   -0.5810 C.3     0  LIG0       -0.0959
     33 C129        2.7680   -2.0080   -1.6790 C.3     0  LIG0       -0.0959
     34 C130        4.6660   -0.8440   -2.4310 C.3     0  LIG0       -0.0959
     35  O86        1.2640   -4.0770    3.4560 O.3     0  LIG0       -0.4457
     36  C90        0.8890   -4.9460    4.4110 C.2     0  LIG0        0.3171
     37  O82       -0.1570   -5.5100    4.3830 O.2     0  LIG0       -0.2501
     38 C105        1.8730   -5.1480    5.5090 C.3     0  LIG0        0.1096
     39 C113        1.5040   -6.2530    6.4270 C.3     0  LIG0        0.0116
     40 C121        1.7790   -7.5550    5.8300 C.3     0  LIG0        0.0006
     41 C125        3.1690   -7.9180    5.9540 C.3     0  LIG0        0.0000
     42 C123        3.5250   -8.8490    4.8930 C.3     0  LIG0        0.0000
     43 C117        4.8840   -8.6670    4.4620 C.3     0  LIG0        0.0000
     44 C109        5.0200   -9.1320    3.1040 C.3     0  LIG0        0.0000
     45  C98        5.0210  -10.5740    3.0620 C.3     0  LIG0        0.0003
     46  C94        4.2440  -11.3610    2.3860 C.3     0  LIG0        0.0047
     47 C100        2.9420  -11.0610    1.9130 C.3     0  LIG0        0.0257
     48  C92        2.3610  -12.2480    1.2990 C.2     0  LIG0       -0.0307
     49  C96        1.1000  -12.4390    1.0570 C.2     0  LIG0       -0.0307
     50 C107        0.0360  -11.4350    1.1420 C.3     0  LIG0        0.0257
     51 C115       -1.2420  -11.9990    1.6050 C.3     0  LIG0        0.0047
     52 C119       -2.1700  -10.9360    1.9910 C.3     0  LIG0        0.0003
     53 C111       -3.0950  -11.3280    3.0420 C.3     0  LIG0        0.0000
     54 C102       -3.9120  -10.1540    3.5600 C.3     0  LIG0        0.0000
@<TRIPOS>BOND
     1    34    31    1
     2    33    31    1
     3    31    32    1
     4    31    30    1
     5    16    15    1
     6    16    17    1
     7    14    15    1
     8    14    13    1
     9    30    29    1
    10    19    18    2
    11    12    13    1
    12    12    11    1
    13    17    18    1
    14    18    20    1
    15    29    28    1
    16    28    25    1
    17    49    50    1
    18    49    48    2
    19    50    51    1
    20    21    20    1
    21    21    22    1
    22    48    47    1
    23    11    10    1
    24    51    52    1
    25    26    25    2
    26    47    46    1
    27    52    53    1
    28    23    22    1
    29    23    24    1
    30    10     9    2
    31    25    24    1
    32    25    27    1
    33    22    35    1
    34    46    45    1
    35    53    54    1
    36    45    44    1
    37    44    43    1
    38     9     8    1
    39    35    36    1
    40     8     7    1
    41    37    36    2
    42    36    38    1
    43    43    42    1
    44    42    41    1
    45     7     6    2
    46     5     6    1
    47     5     4    1
    48     1     2    1
    49    38    39    1
    50     3     4    1
    51     3     2    1
    52    40    41    1
    53    40    39    1
