@<TRIPOS>MOLECULE
/Users/xuhangdai/Desktop/Projects/OptimalTransport/extra_bio_ligands_boltz_af3/boltz_results_1ln1_DLP/1ln1_DLP_model_18_chainB.pdb
 54 53 0 0 0
SMALL
GASTEIGER

@<TRIPOS>ATOM
      1 C101       -8.2180    4.0890    7.2720 C.3     0  LIG0        0.0000
      2 C110       -7.8730    5.5060    7.0630 C.3     0  LIG0        0.0000
      3 C118       -6.5170    5.6840    6.5170 C.3     0  LIG0        0.0003
      4 C114       -6.0880    7.0840    6.6350 C.3     0  LIG0        0.0047
      5 C106       -5.2110    7.4780    5.5300 C.3     0  LIG0        0.0257
      6  C95       -4.8720    8.8940    5.6440 C.2     0  LIG0       -0.0307
      7  C91       -4.9260    9.7190    4.6470 C.2     0  LIG0       -0.0307
      8  C99       -5.4310    9.4190    3.3240 C.3     0  LIG0        0.0257
      9  C93       -5.6050   10.6560    2.6200 C.3     0  LIG0        0.0047
     10  C97       -6.0990   10.8310    1.4220 C.3     0  LIG0        0.0003
     11 C108       -5.9970    9.9400    0.3000 C.3     0  LIG0        0.0000
     12 C116       -7.2660    9.9710   -0.4170 C.3     0  LIG0        0.0000
     13 C122       -7.4610    8.7580   -1.1620 C.3     0  LIG0        0.0000
     14 C124       -7.7160    7.6060   -0.2730 C.3     0  LIG0        0.0000
     15 C120       -9.1290    7.4400    0.0100 C.3     0  LIG0        0.0006
     16 C112       -9.3450    6.1420    0.6400 C.3     0  LIG0        0.0116
     17 C104       -9.5010    5.0800   -0.3860 C.3     0  LIG0        0.1096
     18  C89       -8.6700    3.9080   -0.0310 C.2     0  LIG0        0.3171
     19  O81       -8.7900    3.3550    1.0090 O.2     0  LIG0       -0.2501
     20  O85       -7.8020    3.5040   -0.9680 O.3     0  LIG0       -0.4444
     21 C126       -6.9590    2.3990   -0.7010 C.3     0  LIG0        0.2543
     22 C132       -5.6350    2.5970   -1.3890 C.3     0  LIG0        0.2420
     23 C127       -4.8120    1.3380   -1.3190 C.3     0  LIG0        0.1964
     24  O88       -4.8070    0.7780   -2.5720 O.3     0  LIG0       -0.3101
     25 P134       -3.7090   -0.2590   -2.9610 P.3     0  LIG0        0.2140
     26  O83       -3.4860   -1.1980   -1.8610 O.3     0  LIG0       -0.4373
     27  O84       -4.0930   -0.8540   -4.2400 O.2     0  LIG0       -0.5172
     28  O87       -2.3710    0.5400   -3.1780 O.3     0  LIG0       -0.3163
     29 C103       -2.3570    1.6500   -3.9630 C.3     0  LIG0        0.1271
     30 C131       -0.9510    1.9870   -4.3150 C.3     0  LIG0       -0.0402
     31 N133       -0.4780    3.2620   -3.8000 N.4     0  LIG0        0.3874
     32 C128       -1.3050    4.3590   -4.3140 C.3     0  LIG0       -0.0959
     33 C129       -0.5400    3.2930   -2.3270 C.3     0  LIG0       -0.0959
     34 C130        0.8850    3.4640   -4.2070 C.3     0  LIG0       -0.0959
     35  O86       -4.8810    3.6200   -0.7950 O.3     0  LIG0       -0.4457
     36  C90       -4.5650    4.7100   -1.5550 C.2     0  LIG0        0.3171
     37  O82       -5.0910    4.8850   -2.6060 O.2     0  LIG0       -0.2501
     38 C105       -3.5320    5.6640   -1.0100 C.3     0  LIG0        0.1096
     39 C113       -3.9130    6.1780    0.3190 C.3     0  LIG0        0.0116
     40 C121       -3.3810    5.2780    1.3590 C.3     0  LIG0        0.0006
     41 C125       -3.8770    5.6570    2.7130 C.3     0  LIG0        0.0000
     42 C123       -3.1770    4.9650    3.8370 C.3     0  LIG0        0.0003
     43 C117       -3.3000    3.4950    3.8260 C.3     0  LIG0        0.0047
     44 C109       -4.5950    2.9930    4.3040 C.3     0  LIG0        0.0257
     45  C98       -4.8410    1.7470    3.6880 C.2     0  LIG0       -0.0304
     46  C94       -6.0910    1.3050    3.5110 C.2     0  LIG0       -0.0260
     47 C100       -6.2670    0.1830    2.6960 C.3     0  LIG0        0.0513
     48  C92       -7.6810   -0.0610    2.4780 C.2     0  LIG0       -0.0260
     49  C96       -8.1420   -1.1270    1.9220 C.2     0  LIG0       -0.0304
     50 C107       -7.3300   -2.2650    1.4450 C.3     0  LIG0        0.0257
     51 C115       -8.2300   -3.3220    0.9030 C.3     0  LIG0        0.0047
     52 C119       -7.4600   -4.4240    0.2610 C.3     0  LIG0        0.0003
     53 C111       -7.1930   -5.5340    1.1950 C.3     0  LIG0        0.0000
     54 C102       -6.6180   -6.7330    0.4970 C.3     0  LIG0        0.0000
@<TRIPOS>BOND
     1    30    29    1
     2    30    31    1
     3    32    31    1
     4    27    25    2
     5    34    31    1
     6    29    28    1
     7    31    33    1
     8    28    25    1
     9    25    24    1
    10    25    26    1
    11    37    36    2
    12    24    23    1
    13    36    38    1
    14    36    35    1
    15    22    23    1
    16    22    35    1
    17    22    21    1
    18    13    12    1
    19    13    14    1
    20    38    39    1
    21    20    21    1
    22    20    18    1
    23    12    11    1
    24    17    18    1
    25    17    16    1
    26    14    15    1
    27    18    19    2
    28    15    16    1
    29    52    51    1
    30    52    53    1
    31    11    10    1
    32    39    40    1
    33    54    53    1
    34    51    50    1
    35    40    41    1
    36    10     9    1
    37    50    49    1
    38    49    48    2
    39    48    47    1
    40     9     8    1
    41    47    46    1
    42    41    42    1
    43     8     7    1
    44    46    45    2
    45    45    44    1
    46    43    42    1
    47    43    44    1
    48     7     6    2
    49     5     6    1
    50     5     4    1
    51     3     4    1
    52     3     2    1
    53     2     1    1
