@<TRIPOS>MOLECULE
/Users/xuhangdai/Desktop/Projects/OptimalTransport/extra_bio_ligands_boltz_af3/boltz_results_1ln1_DLP/1ln1_DLP_model_41_chainB.pdb
 54 53 0 0 0
SMALL
GASTEIGER

@<TRIPOS>ATOM
      1 C101       -0.0640   -2.1170  -12.7050 C.3     0  LIG0        0.0000
      2 C110        1.0010   -2.2240  -11.6580 C.3     0  LIG0        0.0000
      3 C118        1.8400   -3.3900  -11.8640 C.3     0  LIG0        0.0003
      4 C114        2.9620   -3.4980  -10.9230 C.3     0  LIG0        0.0047
      5 C106        3.6180   -4.8010  -11.0610 C.3     0  LIG0        0.0257
      6  C95        4.6540   -5.0470  -10.0340 C.2     0  LIG0       -0.0307
      7  C91        4.6990   -6.2030   -9.4030 C.2     0  LIG0       -0.0307
      8  C99        3.5980   -7.1270   -9.4930 C.3     0  LIG0        0.0257
      9  C93        3.7880   -8.2580   -8.6410 C.3     0  LIG0        0.0047
     10  C97        2.6330   -8.9480   -8.3720 C.3     0  LIG0        0.0003
     11 C108        2.5890  -10.0140   -7.4780 C.3     0  LIG0        0.0000
     12 C116        1.1970  -10.4290   -7.2340 C.3     0  LIG0        0.0000
     13 C122        0.3940   -9.3740   -6.5900 C.3     0  LIG0        0.0000
     14 C124       -0.2810   -8.5650   -7.6080 C.3     0  LIG0        0.0000
     15 C120       -1.5930   -8.1440   -7.1970 C.3     0  LIG0        0.0006
     16 C112       -2.0800   -7.1480   -8.1130 C.3     0  LIG0        0.0116
     17 C104       -3.3690   -6.6510   -7.6360 C.3     0  LIG0        0.1096
     18  C89       -3.2060   -5.2910   -7.0810 C.2     0  LIG0        0.3171
     19  O81       -3.2520   -4.3450   -7.7800 O.2     0  LIG0       -0.2501
     20  O85       -3.0420   -5.1930   -5.7600 O.3     0  LIG0       -0.4444
     21 C126       -2.9710   -3.8960   -5.1810 C.3     0  LIG0        0.2543
     22 C132       -2.0390   -3.9410   -4.0110 C.3     0  LIG0        0.2420
     23 C127       -1.9810   -2.5970   -3.3070 C.3     0  LIG0        0.1964
     24  O88       -2.7990   -2.6870   -2.1960 O.3     0  LIG0       -0.3101
     25 P134       -2.6390   -1.6700   -1.0270 P.3     0  LIG0        0.2140
     26  O83       -2.6500   -0.3030   -1.5530 O.2     0  LIG0       -0.5172
     27  O84       -3.6480   -1.9750   -0.0190 O.3     0  LIG0       -0.4373
     28  O87       -1.2270   -1.9200   -0.3820 O.3     0  LIG0       -0.3163
     29 C103       -0.9110   -3.1630    0.0870 C.3     0  LIG0        0.1271
     30 C131        0.1750   -3.0470    1.0820 C.3     0  LIG0       -0.0402
     31 N133        1.4810   -3.4940    0.6230 N.4     0  LIG0        0.3874
     32 C128        1.4470   -4.9200    0.3140 C.3     0  LIG0       -0.0959
     33 C129        1.8760   -2.7640   -0.6040 C.3     0  LIG0       -0.0959
     34 C130        2.4610   -3.2390    1.6370 C.3     0  LIG0       -0.0959
     35  O86       -0.7460   -4.2700   -4.4330 O.3     0  LIG0       -0.4457
     36  C90       -0.1370   -5.3310   -3.8240 C.2     0  LIG0        0.3171
     37  O82       -0.5860   -5.7850   -2.8250 O.2     0  LIG0       -0.2501
     38 C105        1.0840   -5.9150   -4.4540 C.3     0  LIG0        0.1096
     39 C113        2.1470   -4.9360   -4.7370 C.3     0  LIG0        0.0116
     40 C121        1.7760   -4.1590   -5.9370 C.3     0  LIG0        0.0006
     41 C125        2.9470   -3.5940   -6.6470 C.3     0  LIG0        0.0000
     42 C123        2.9020   -2.1050   -6.7110 C.3     0  LIG0        0.0000
     43 C117        1.9570   -1.5780   -7.6960 C.3     0  LIG0        0.0000
     44 C109        0.8610   -0.8300   -7.0770 C.3     0  LIG0        0.0000
     45  C98        0.0030   -0.3440   -8.1040 C.3     0  LIG0        0.0003
     46  C94       -1.2790   -0.5930   -8.1820 C.3     0  LIG0        0.0047
     47 C100       -2.2040   -0.2950   -7.1550 C.3     0  LIG0        0.0257
     48  C92       -3.5210   -0.7900   -7.5620 C.2     0  LIG0       -0.0307
     49  C96       -4.6530   -0.4050   -7.0610 C.2     0  LIG0       -0.0307
     50 C107       -4.7980    0.5500   -5.9440 C.3     0  LIG0        0.0257
     51 C115       -6.1710    1.1260   -5.9560 C.3     0  LIG0        0.0047
     52 C119       -6.4260    1.9180   -4.7300 C.3     0  LIG0        0.0003
     53 C111       -7.4480    2.9490   -4.9410 C.3     0  LIG0        0.0000
     54 C102       -7.7220    3.7280   -3.6840 C.3     0  LIG0        0.0000
@<TRIPOS>BOND
     1     1     2    1
     2     3     2    1
     3     3     4    1
     4     5     4    1
     5     5     6    1
     6     6     7    2
     7     8     7    1
     8     8     9    1
     9     9    10    1
    10    10    11    1
    11    46    45    1
    12    46    47    1
    13    16    17    1
    14    16    15    1
    15    45    44    1
    16    19    18    2
    17    43    44    1
    18    43    42    1
    19    17    18    1
    20    14    15    1
    21    14    13    1
    22    48    47    1
    23    48    49    2
    24    11    12    1
    25    12    13    1
    26    18    20    1
    27    49    50    1
    28    42    41    1
    29    41    40    1
    30    51    50    1
    31    51    52    1
    32    40    39    1
    33    20    21    1
    34    21    22    1
    35    53    52    1
    36    53    54    1
    37    39    38    1
    38    38    36    1
    39    35    22    1
    40    35    36    1
    41    22    23    1
    42    36    37    2
    43    23    24    1
    44    24    25    1
    45    26    25    2
    46    25    28    1
    47    25    27    1
    48    33    31    1
    49    28    29    1
    50    29    30    1
    51    32    31    1
    52    31    30    1
    53    31    34    1
