@<TRIPOS>MOLECULE
/Users/xuhangdai/Desktop/Projects/OptimalTransport/extra_bio_ligands_boltz_af3/boltz_results_1ln1_DLP/1ln1_DLP_model_19_chainB.pdb
 54 53 0 0 0
SMALL
GASTEIGER

@<TRIPOS>ATOM
      1 C101       -5.1400   10.1490    2.5240 C.3     0  LIG0        0.0000
      2 C110       -3.7530   10.5770    2.8250 C.3     0  LIG0        0.0000
      3 C118       -3.2230    9.9710    4.0510 C.3     0  LIG0        0.0003
      4 C114       -2.4420   10.9270    4.8490 C.3     0  LIG0        0.0047
      5 C106       -1.0150   10.5910    4.8460 C.3     0  LIG0        0.0257
      6  C95       -0.2870   11.4750    5.7590 C.2     0  LIG0       -0.0307
      7  C91        0.9720   11.7740    5.5680 C.2     0  LIG0       -0.0307
      8  C99        1.7570   11.3750    4.4090 C.3     0  LIG0        0.0257
      9  C93        2.9360   12.1990    4.3410 C.3     0  LIG0        0.0047
     10  C97        3.8640   12.1690    3.4090 C.3     0  LIG0        0.0003
     11 C108        4.2190   11.0260    2.6070 C.3     0  LIG0        0.0000
     12 C116        4.4800   11.4850    1.2480 C.3     0  LIG0        0.0000
     13 C122        4.3150   10.4120    0.2950 C.3     0  LIG0        0.0000
     14 C124        2.9050    9.9550    0.2410 C.3     0  LIG0        0.0000
     15 C120        2.1670   10.5900   -0.8330 C.3     0  LIG0        0.0006
     16 C112        0.9090    9.8780   -1.0260 C.3     0  LIG0        0.0116
     17 C104        1.0430    8.8550   -2.0980 C.3     0  LIG0        0.1096
     18  C89        0.2490    7.6560   -1.7520 C.2     0  LIG0        0.3171
     19  O81       -0.9320    7.6510   -1.8280 O.2     0  LIG0       -0.2501
     20  O85        0.9620    6.6010   -1.3570 O.3     0  LIG0       -0.4444
     21 C126        0.3140    5.3680   -1.1070 C.3     0  LIG0        0.2543
     22 C132        1.3330    4.4240   -0.5490 C.3     0  LIG0        0.2420
     23 C127        0.7620    3.0420   -0.3700 C.3     0  LIG0        0.1964
     24  O88        1.7180    2.1570   -0.8450 O.3     0  LIG0       -0.3101
     25 P134        1.7640    0.6740   -0.3570 P.3     0  LIG0        0.2140
     26  O83        0.4400    0.2140    0.0490 O.3     0  LIG0       -0.4373
     27  O84        2.4340   -0.1190   -1.3900 O.2     0  LIG0       -0.5172
     28  O87        2.6780    0.6860    0.9170 O.3     0  LIG0       -0.3163
     29 C103        3.9090    1.2500    0.8500 C.3     0  LIG0        0.1271
     30 C131        4.8160    0.5420    1.7910 C.3     0  LIG0       -0.0402
     31 N133        5.1870    1.3260    2.9690 N.4     0  LIG0        0.3874
     32 C128        5.9280    2.5290    2.5650 C.3     0  LIG0       -0.0959
     33 C129        3.9770    1.7510    3.7090 C.3     0  LIG0       -0.0959
     34 C130        6.0030    0.5270    3.8400 C.3     0  LIG0       -0.0959
     35  O86        1.7980    4.8500    0.7060 O.3     0  LIG0       -0.4457
     36  C90        3.0650    5.3730    0.7910 C.2     0  LIG0        0.3171
     37  O82        3.7180    5.5550   -0.1880 O.2     0  LIG0       -0.2501
     38 C105        3.5900    5.6900    2.1710 C.3     0  LIG0        0.1096
     39 C113        2.8820    6.8350    2.7820 C.3     0  LIG0        0.0116
     40 C121        1.6080    6.3470    3.3360 C.3     0  LIG0        0.0006
     41 C125        1.1170    7.1420    4.4980 C.3     0  LIG0        0.0000
     42 C123       -0.3810    7.2740    4.4640 C.3     0  LIG0        0.0003
     43 C117       -1.1020    5.9850    4.5970 C.3     0  LIG0        0.0047
     44 C109       -2.4610    6.0540    3.9900 C.3     0  LIG0        0.0257
     45  C98       -2.5610    5.1050    2.9460 C.2     0  LIG0       -0.0304
     46  C94       -3.0580    5.4840    1.7390 C.2     0  LIG0       -0.0260
     47 C100       -3.2030    4.4890    0.7500 C.3     0  LIG0        0.0513
     48  C92       -3.5790    5.0800   -0.5350 C.2     0  LIG0       -0.0260
     49  C96       -3.9230    4.3660   -1.5690 C.2     0  LIG0       -0.0304
     50 C107       -4.0430    2.8830   -1.5770 C.3     0  LIG0        0.0257
     51 C115       -4.2100    2.3910   -2.9740 C.3     0  LIG0        0.0047
     52 C119       -4.0700    0.8990   -3.0570 C.3     0  LIG0        0.0003
     53 C111       -5.3740    0.2180   -3.0640 C.3     0  LIG0        0.0000
     54 C102       -5.2370   -1.2700   -3.2560 C.3     0  LIG0        0.0000
@<TRIPOS>BOND
     1    54    53    1
     2    53    52    1
     3    52    51    1
     4    51    50    1
     5    17    18    1
     6    17    16    1
     7    19    18    2
     8    18    20    1
     9    50    49    1
    10    49    48    2
    11    27    25    2
    12    20    21    1
    13    21    22    1
    14    16    15    1
    15    24    23    1
    16    24    25    1
    17    15    14    1
    18    22    23    1
    19    22    35    1
    20    48    47    1
    21    25    26    1
    22    25    28    1
    23    37    36    2
    24    14    13    1
    25    13    12    1
    26    35    36    1
    27    47    46    1
    28    36    38    1
    29    29    28    1
    30    29    30    1
    31    12    11    1
    32    46    45    2
    33    30    31    1
    34    38    39    1
    35     1     2    1
    36    32    31    1
    37    11    10    1
    38    39    40    1
    39     2     3    1
    40    45    44    1
    41    31    33    1
    42    31    34    1
    43    40    41    1
    44    10     9    1
    45    44    43    1
    46     3     4    1
    47     9     8    1
    48     8     7    1
    49    42    41    1
    50    42    43    1
    51     5     4    1
    52     5     6    1
    53     7     6    2
