@<TRIPOS>MOLECULE
/Users/xuhangdai/Desktop/Projects/OptimalTransport/extra_bio_ligands_boltz_af3/boltz_results_1ln1_DLP/1ln1_DLP_model_4_chainB.pdb
 54 53 0 0 0
SMALL
GASTEIGER

@<TRIPOS>ATOM
      1 C101        3.6640   -6.8420   -8.2830 C.3     0  LIG0        0.0000
      2 C110        4.1910   -5.7820   -9.1680 C.3     0  LIG0        0.0000
      3 C118        4.9780   -4.7620   -8.4650 C.3     0  LIG0        0.0003
      4 C114        5.6510   -3.8360   -9.4010 C.3     0  LIG0        0.0047
      5 C106        6.4490   -2.8360   -8.6780 C.3     0  LIG0        0.0257
      6  C95        7.6120   -2.4220   -9.4640 C.2     0  LIG0       -0.0304
      7  C91        8.7560   -2.0700   -8.9650 C.2     0  LIG0       -0.0260
      8  C99        9.1220   -1.9220   -7.5840 C.3     0  LIG0        0.0513
      9  C93       10.2270   -2.7620   -7.3270 C.2     0  LIG0       -0.0260
     10  C97       11.0320   -2.8230   -6.3470 C.2     0  LIG0       -0.0304
     11 C108       11.0980   -2.1750   -5.0880 C.3     0  LIG0        0.0257
     12 C116       11.4920   -3.1780   -4.1020 C.3     0  LIG0        0.0047
     13 C122       10.6500   -3.2060   -2.9180 C.3     0  LIG0        0.0003
     14 C124        9.3570   -3.8930   -3.1230 C.3     0  LIG0        0.0000
     15 C120        9.4410   -5.3360   -2.9480 C.3     0  LIG0        0.0006
     16 C112        8.1070   -5.9190   -2.9860 C.3     0  LIG0        0.0116
     17 C104        7.5210   -6.0290   -1.6330 C.3     0  LIG0        0.1096
     18  C89        6.1170   -5.5570   -1.6250 C.2     0  LIG0        0.3171
     19  O81        5.2700   -6.0830   -2.2600 O.2     0  LIG0       -0.2501
     20  O85        5.8730   -4.5190   -0.8340 O.3     0  LIG0       -0.4444
     21 C126        4.5710   -3.9580   -0.7870 C.3     0  LIG0        0.2543
     22 C132        4.7270   -2.4770   -0.6140 C.3     0  LIG0        0.2420
     23 C127        3.4030   -1.8070   -0.3130 C.3     0  LIG0        0.1964
     24  O88        3.3460   -1.6190    1.0530 O.3     0  LIG0       -0.3101
     25 P134        2.3020   -0.6360    1.6680 P.3     0  LIG0        0.2140
     26  O83        0.9950   -0.8260    1.0300 O.2     0  LIG0       -0.5172
     27  O84        2.3320   -0.8000    3.1240 O.3     0  LIG0       -0.4373
     28  O87        2.7990    0.8210    1.3290 O.3     0  LIG0       -0.3163
     29 C103        4.0760    1.2100    1.6160 C.3     0  LIG0        0.1271
     30 C131        4.1850    2.6840    1.5540 C.3     0  LIG0       -0.0402
     31 N133        4.8920    3.2130    0.3900 N.4     0  LIG0        0.3874
     32 C128        6.2870    2.7520    0.3930 C.3     0  LIG0       -0.0959
     33 C129        4.2470    2.7610   -0.8670 C.3     0  LIG0       -0.0959
     34 C130        4.8650    4.6520    0.4250 C.3     0  LIG0       -0.0959
     35  O86        5.2590   -1.9160   -1.7770 O.3     0  LIG0       -0.4457
     36  C90        6.3290   -1.0810   -1.6550 C.2     0  LIG0        0.3171
     37  O82        6.6760   -0.6960   -0.5810 O.2     0  LIG0       -0.2501
     38 C105        7.0500   -0.6810   -2.9090 C.3     0  LIG0        0.1096
     39 C113        6.1710   -0.1870   -3.9970 C.3     0  LIG0        0.0116
     40 C121        5.4370   -1.3130   -4.6240 C.3     0  LIG0        0.0006
     41 C125        4.5200   -0.8770   -5.7210 C.3     0  LIG0        0.0000
     42 C123        3.6300   -2.0020   -6.1530 C.3     0  LIG0        0.0003
     43 C117        2.1980   -1.7910   -5.9070 C.3     0  LIG0        0.0047
     44 C109        1.6090   -2.6010   -4.8490 C.3     0  LIG0        0.0257
     45  C98        1.9910   -3.9410   -4.9090 C.2     0  LIG0       -0.0304
     46  C94        1.7910   -4.8320   -4.0170 C.2     0  LIG0       -0.0260
     47 C100        1.0180   -4.6960   -2.8630 C.3     0  LIG0        0.0513
     48  C92        0.9950   -5.9560   -2.1710 C.2     0  LIG0       -0.0260
     49  C96        0.4330   -6.2140   -1.0510 C.2     0  LIG0       -0.0304
     50 C107       -0.2890   -5.3220   -0.1550 C.3     0  LIG0        0.0257
     51 C115       -0.9110   -6.1190    0.9270 C.3     0  LIG0        0.0047
     52 C119       -1.9560   -5.3740    1.6730 C.3     0  LIG0        0.0003
     53 C111       -3.3180   -5.7680    1.2890 C.3     0  LIG0        0.0000
     54 C102       -4.3750   -5.1180    2.1320 C.3     0  LIG0        0.0000
@<TRIPOS>BOND
     1     6     7    2
     2     6     5    1
     3     4     5    1
     4     4     3    1
     5     2     3    1
     6     2     1    1
     7     7     8    1
     8     8     9    1
     9     9    10    2
    10    10    11    1
    11    42    43    1
    12    42    41    1
    13    43    44    1
    14    41    40    1
    15    11    12    1
    16    45    44    1
    17    45    46    2
    18    40    39    1
    19    12    13    1
    20    46    47    1
    21    39    38    1
    22    14    15    1
    23    14    13    1
    24    16    15    1
    25    16    17    1
    26    38    36    1
    27    47    48    1
    28    19    18    2
    29    48    49    2
    30    35    36    1
    31    35    22    1
    32    36    37    2
    33    17    18    1
    34    18    20    1
    35    49    50    1
    36    33    31    1
    37    20    21    1
    38    21    22    1
    39    22    23    1
    40    23    24    1
    41    50    51    1
    42    31    32    1
    43    31    34    1
    44    31    30    1
    45    51    52    1
    46    26    25    2
    47    24    25    1
    48    53    52    1
    49    53    54    1
    50    28    29    1
    51    28    25    1
    52    30    29    1
    53    25    27    1
