@<TRIPOS>MOLECULE
/Users/xuhangdai/Desktop/Projects/OptimalTransport/extra_bio_ligands_boltz_af3/boltz_results_1ln1_DLP/1ln1_DLP_model_12_chainB.pdb
 54 53 0 0 0
SMALL
GASTEIGER

@<TRIPOS>ATOM
      1 C101        9.2050   -0.6590   -5.3950 C.3     0  LIG0        0.0000
      2 C110        8.2690   -1.6230   -4.7330 C.3     0  LIG0        0.0000
      3 C118        8.7500   -3.0000   -4.8430 C.3     0  LIG0        0.0000
      4 C114        7.8090   -3.9780   -4.3200 C.3     0  LIG0        0.0000
      5 C106        8.3170   -5.3430   -4.4720 C.3     0  LIG0        0.0000
      6  C95        7.2470   -6.2900   -4.4790 C.3     0  LIG0        0.0003
      7  C91        6.8630   -6.6890   -5.7190 C.3     0  LIG0        0.0047
      8  C99        5.6390   -7.4070   -5.8410 C.3     0  LIG0        0.0257
      9  C93        5.2270   -7.3520   -7.1820 C.2     0  LIG0       -0.0307
     10  C97        3.9140   -7.6650   -7.4160 C.2     0  LIG0       -0.0307
     11 C108        3.4670   -7.6690   -8.7200 C.3     0  LIG0        0.0257
     12 C116        2.1350   -7.0790   -8.7830 C.3     0  LIG0        0.0047
     13 C122        2.1370   -5.8060   -9.5060 C.3     0  LIG0        0.0003
     14 C124        2.5950   -4.6910   -8.6510 C.3     0  LIG0        0.0000
     15 C120        2.9040   -3.5460   -9.4800 C.3     0  LIG0        0.0006
     16 C112        3.4210   -2.4750   -8.6590 C.3     0  LIG0        0.0116
     17 C104        2.6890   -1.2300   -8.9630 C.3     0  LIG0        0.1096
     18  C89        2.4390   -0.5020   -7.7180 C.2     0  LIG0        0.3171
     19  O81        3.2390    0.2550   -7.2860 O.2     0  LIG0       -0.2501
     20  O85        1.2640   -0.7390   -7.1240 O.3     0  LIG0       -0.4444
     21 C126        0.9200    0.0220   -5.9860 C.3     0  LIG0        0.2543
     22 C132       -0.0750   -0.7430   -5.1640 C.3     0  LIG0        0.2420
     23 C127       -0.4770    0.0430   -3.9470 C.3     0  LIG0        0.1964
     24  O88       -1.8170    0.3310   -4.0660 O.3     0  LIG0       -0.3101
     25 P134       -2.6600    0.7500   -2.8140 P.3     0  LIG0        0.2140
     26  O83       -1.8810    1.6300   -1.9450 O.3     0  LIG0       -0.4373
     27  O84       -3.9300    1.2910   -3.2970 O.2     0  LIG0       -0.5172
     28  O87       -2.9660   -0.5730   -2.0230 O.3     0  LIG0       -0.3163
     29 C103       -3.5240   -1.6210   -2.6780 C.3     0  LIG0        0.1271
     30 C131       -4.1790   -2.5200   -1.7080 C.3     0  LIG0       -0.0402
     31 N133       -3.5590   -3.8370   -1.5870 N.4     0  LIG0        0.3874
     32 C128       -3.4810   -4.4970   -2.9020 C.3     0  LIG0       -0.0959
     33 C129       -2.1820   -3.7050   -1.0460 C.3     0  LIG0       -0.0959
     34 C130       -4.3380   -4.6440   -0.6990 C.3     0  LIG0       -0.0959
     35  O86        0.4530   -1.9610   -4.7130 O.3     0  LIG0       -0.4457
     36  C90       -0.1500   -3.1150   -5.1240 C.2     0  LIG0        0.3171
     37  O82       -0.9670   -3.0910   -5.9890 O.2     0  LIG0       -0.2501
     38 C105        0.2420   -4.3970   -4.4350 C.3     0  LIG0        0.1096
     39 C113        1.6850   -4.6840   -4.5480 C.3     0  LIG0        0.0116
     40 C121        2.4010   -3.8910   -3.5270 C.3     0  LIG0        0.0006
     41 C125        3.6530   -4.5410   -3.0570 C.3     0  LIG0        0.0000
     42 C123        4.7500   -3.5340   -2.8830 C.3     0  LIG0        0.0003
     43 C117        4.4900   -2.5560   -1.8060 C.3     0  LIG0        0.0047
     44 C109        5.2070   -1.2740   -2.0360 C.3     0  LIG0        0.0257
     45  C98        4.2430   -0.2680   -2.2230 C.2     0  LIG0       -0.0304
     46  C94        4.4500    0.6140   -3.2110 C.2     0  LIG0       -0.0260
     47 C100        3.4930    1.6390   -3.3250 C.3     0  LIG0        0.0513
     48  C92        3.8190    2.4800   -4.4680 C.2     0  LIG0       -0.0260
     49  C96        3.1940    3.5910   -4.7130 C.2     0  LIG0       -0.0304
     50 C107        2.0510    4.0910   -3.9100 C.3     0  LIG0        0.0257
     51 C115        1.9530    5.5670   -4.0500 C.3     0  LIG0        0.0047
     52 C119        0.8550    6.1140   -3.2110 C.3     0  LIG0        0.0003
     53 C111        0.9560    7.5690   -3.0460 C.3     0  LIG0        0.0000
     54 C102       -0.1720    8.1100   -2.2100 C.3     0  LIG0        0.0000
@<TRIPOS>BOND
     1    13    12    1
     2    13    14    1
     3    15    16    1
     4    15    14    1
     5    17    16    1
     6    17    18    1
     7    12    11    1
     8    11    10    1
     9    18    19    2
    10    18    20    1
    11    10     9    2
    12     9     8    1
    13    20    21    1
    14    37    36    2
    15    21    22    1
    16     8     7    1
    17     7     6    1
    18     1     2    1
    19    22    35    1
    20    22    23    1
    21    36    35    1
    22    36    38    1
    23     3     2    1
    24     3     4    1
    25    49    48    2
    26    49    50    1
    27    39    38    1
    28    39    40    1
    29     6     5    1
    30     5     4    1
    31    48    47    1
    32    24    23    1
    33    24    25    1
    34    51    50    1
    35    51    52    1
    36    40    41    1
    37    47    46    1
    38    27    25    2
    39    52    53    1
    40    46    45    2
    41    41    42    1
    42    53    54    1
    43    32    31    1
    44    42    43    1
    45    25    28    1
    46    25    26    1
    47    29    28    1
    48    29    30    1
    49    45    44    1
    50    44    43    1
    51    30    31    1
    52    31    33    1
    53    31    34    1
