@<TRIPOS>MOLECULE
/Users/xuhangdai/Desktop/Projects/OptimalTransport/extra_bio_ligands_boltz_af3/boltz_results_1ln1_DLP/1ln1_DLP_model_6_chainB.pdb
 54 53 0 0 0
SMALL
GASTEIGER

@<TRIPOS>ATOM
      1 C101       -6.6180   -7.9820   -4.9140 C.3     0  LIG0        0.0000
      2 C110       -5.4100   -8.7850   -5.1900 C.3     0  LIG0        0.0000
      3 C118       -4.1820   -7.9510   -5.2740 C.3     0  LIG0        0.0003
      4 C114       -3.1040   -8.6990   -5.9390 C.3     0  LIG0        0.0047
      5 C106       -1.7750   -8.3620   -5.3950 C.3     0  LIG0        0.0257
      6  C95       -0.7370   -9.0170   -6.1960 C.2     0  LIG0       -0.0304
      7  C91        0.4260   -9.3990   -5.7230 C.2     0  LIG0       -0.0260
      8  C99        0.8970   -9.2570   -4.3470 C.3     0  LIG0        0.0513
      9  C93        0.7090  -10.4980   -3.6760 C.2     0  LIG0       -0.0260
     10  C97        1.3090  -10.9180   -2.5980 C.2     0  LIG0       -0.0304
     11 C108        2.1530  -10.2430   -1.6480 C.3     0  LIG0        0.0257
     12 C116        1.9480  -10.9140   -0.3530 C.3     0  LIG0        0.0047
     13 C122        1.2380  -10.0520    0.5990 C.3     0  LIG0        0.0003
     14 C124       -0.2170  -10.1410    0.3880 C.3     0  LIG0        0.0000
     15 C120       -0.9260   -9.3440    1.3740 C.3     0  LIG0        0.0006
     16 C112       -2.3520   -9.4520    1.1720 C.3     0  LIG0        0.0116
     17 C104       -3.0490   -8.6260    2.1620 C.3     0  LIG0        0.1096
     18  C89       -3.2100   -7.2540    1.6440 C.2     0  LIG0        0.3171
     19  O81       -3.9680   -7.0050    0.7730 O.2     0  LIG0       -0.2501
     20  O85       -2.4740   -6.3110    2.2400 O.3     0  LIG0       -0.4444
     21 C126       -2.6910   -4.9550    1.8800 C.3     0  LIG0        0.2543
     22 C132       -1.3710   -4.2640    1.7540 C.3     0  LIG0        0.2420
     23 C127       -1.5860   -2.7750    1.5910 C.3     0  LIG0        0.1964
     24  O88       -1.1270   -2.1770    2.7450 O.3     0  LIG0       -0.3101
     25 P134       -0.9380   -0.6260    2.8040 P.3     0  LIG0        0.2140
     26  O83       -1.9850    0.0490    2.0430 O.2     0  LIG0       -0.5172
     27  O84       -0.8280   -0.2370    4.2000 O.3     0  LIG0       -0.4373
     28  O87        0.4360   -0.3240    2.1070 O.3     0  LIG0       -0.3163
     29 C103        1.5090   -1.1090    2.3750 C.3     0  LIG0        0.1271
     30 C131        2.7470   -0.3950    2.0170 C.3     0  LIG0       -0.0402
     31 N133        3.5620   -1.0590    1.0230 N.4     0  LIG0        0.3874
     32 C128        4.0260   -2.3460    1.5350 C.3     0  LIG0       -0.0959
     33 C129        2.7800   -1.3170   -0.2090 C.3     0  LIG0       -0.0959
     34 C130        4.6920   -0.2450    0.7070 C.3     0  LIG0       -0.0959
     35  O86       -0.6470   -4.7330    0.6480 O.3     0  LIG0       -0.4457
     36  C90        0.5960   -5.2730    0.8690 C.2     0  LIG0        0.3171
     37  O82        1.1410   -5.1100    1.9120 O.2     0  LIG0       -0.2501
     38 C105        1.2290   -6.0710   -0.2270 C.3     0  LIG0        0.1096
     39 C113        1.2260   -5.4040   -1.5450 C.3     0  LIG0        0.0116
     40 C121       -0.1360   -5.4820   -2.1180 C.3     0  LIG0        0.0006
     41 C125       -0.1630   -5.3430   -3.6040 C.3     0  LIG0        0.0000
     42 C123       -1.2340   -4.3880   -4.0450 C.3     0  LIG0        0.0003
     43 C117       -2.5930   -4.9620   -4.0010 C.3     0  LIG0        0.0047
     44 C109       -3.6660   -3.9650   -4.1020 C.3     0  LIG0        0.0257
     45  C98       -3.9310   -3.4080   -2.8440 C.2     0  LIG0       -0.0304
     46  C94       -4.9000   -3.9060   -2.0540 C.2     0  LIG0       -0.0260
     47 C100       -5.2500   -3.1870   -0.9040 C.3     0  LIG0        0.0513
     48  C92       -6.3510   -3.8460   -0.2060 C.2     0  LIG0       -0.0260
     49  C96       -6.9720   -3.3100    0.7880 C.2     0  LIG0       -0.0304
     50 C107       -6.5930   -2.0320    1.4260 C.3     0  LIG0        0.0257
     51 C115       -7.8060   -1.3120    1.9040 C.3     0  LIG0        0.0047
     52 C119       -7.4390   -0.1050    2.6710 C.3     0  LIG0        0.0003
     53 C111       -8.5690    0.8270    2.8180 C.3     0  LIG0        0.0000
     54 C102       -8.2060    2.0390    3.6270 C.3     0  LIG0        0.0000
@<TRIPOS>BOND
     1     6     7    2
     2     6     5    1
     3     4     5    1
     4     4     3    1
     5     7     8    1
     6     3     2    1
     7     2     1    1
     8     8     9    1
     9    44    43    1
    10    44    45    1
    11    42    43    1
    12    42    41    1
    13     9    10    2
    14    41    40    1
    15    45    46    2
    16    10    11    1
    17    40    39    1
    18    46    47    1
    19    11    12    1
    20    39    38    1
    21    47    48    1
    22    12    13    1
    23    38    36    1
    24    33    31    1
    25    48    49    2
    26    14    13    1
    27    14    15    1
    28    35    36    1
    29    35    22    1
    30    34    31    1
    31    19    18    2
    32    49    50    1
    33    36    37    2
    34    31    32    1
    35    31    30    1
    36    16    15    1
    37    16    17    1
    38    50    51    1
    39    23    22    1
    40    23    24    1
    41    18    17    1
    42    18    20    1
    43    22    21    1
    44    21    20    1
    45    51    52    1
    46    30    29    1
    47    26    25    2
    48    28    29    1
    49    28    25    1
    50    52    53    1
    51    24    25    1
    52    25    27    1
    53    53    54    1
