@<TRIPOS>MOLECULE
/Users/xuhangdai/Desktop/Projects/OptimalTransport/extra_bio_ligands_boltz_af3/boltz_results_1ln1_DLP/1ln1_DLP_model_35_chainB.pdb
 54 53 0 0 0
SMALL
GASTEIGER

@<TRIPOS>ATOM
      1 C101        9.7800   -3.0240    5.1880 C.3     0  LIG0        0.0000
      2 C110        9.3420   -2.7140    6.5530 C.3     0  LIG0        0.0000
      3 C118        7.8870   -2.6160    6.6750 C.3     0  LIG0        0.0000
      4 C114        7.5050   -2.4950    8.0890 C.3     0  LIG0        0.0000
      5 C106        6.0630   -2.6160    8.2270 C.3     0  LIG0        0.0000
      6  C95        5.6580   -2.6300    9.6290 C.3     0  LIG0        0.0000
      7  C91        4.7470   -3.4740   10.0530 C.3     0  LIG0        0.0000
      8  C99        4.7140   -4.8290    9.5770 C.3     0  LIG0        0.0000
      9  C93        3.3970   -5.2470    9.2950 C.3     0  LIG0        0.0000
     10  C97        3.2360   -6.6000    9.1770 C.3     0  LIG0        0.0000
     11 C108        1.9930   -7.0930    8.7360 C.3     0  LIG0        0.0000
     12 C116        2.2310   -8.2660    7.8950 C.3     0  LIG0        0.0000
     13 C122        2.0050   -7.9770    6.4770 C.3     0  LIG0        0.0000
     14 C124        3.1940   -7.3940    5.8440 C.3     0  LIG0        0.0000
     15 C120        3.9290   -8.3500    5.0570 C.3     0  LIG0        0.0006
     16 C112        4.8110   -7.6270    4.1660 C.3     0  LIG0        0.0116
     17 C104        4.4510   -7.8990    2.7740 C.3     0  LIG0        0.1096
     18  C89        4.4450   -6.6440    2.0080 C.2     0  LIG0        0.3171
     19  O81        5.4320   -6.0290    1.7960 O.2     0  LIG0       -0.2501
     20  O85        3.2630   -6.2890    1.5430 O.3     0  LIG0       -0.4444
     21 C126        3.1530   -5.0880    0.8060 C.3     0  LIG0        0.2543
     22 C132        1.8180   -4.5090    1.1190 C.3     0  LIG0        0.2420
     23 C127        1.5140   -3.3230    0.2370 C.3     0  LIG0        0.1964
     24  O88        0.6630   -3.7860   -0.7300 O.3     0  LIG0       -0.3101
     25 P134       -0.1790   -2.7770   -1.5640 P.3     0  LIG0        0.2140
     26  O83        0.6820   -1.7010   -2.0560 O.3     0  LIG0       -0.4373
     27  O84       -0.9050   -3.5410   -2.5740 O.2     0  LIG0       -0.5172
     28  O87       -1.2320   -2.1450   -0.5830 O.3     0  LIG0       -0.3163
     29 C103       -2.0580   -2.9650    0.1290 C.3     0  LIG0        0.1271
     30 C131       -3.2170   -2.1920    0.6150 C.3     0  LIG0       -0.0402
     31 N133       -3.2070   -1.9090    2.0410 N.4     0  LIG0        0.3874
     32 C128       -3.2210   -3.1580    2.8120 C.3     0  LIG0       -0.0959
     33 C129       -1.9910   -1.1430    2.4090 C.3     0  LIG0       -0.0959
     34 C130       -4.3570   -1.1220    2.3900 C.3     0  LIG0       -0.0959
     35  O86        1.7580   -4.1090    2.4510 O.3     0  LIG0       -0.4457
     36  C90        0.7250   -4.6100    3.1880 C.2     0  LIG0        0.3171
     37  O82       -0.1720   -5.1660    2.6510 O.2     0  LIG0       -0.2501
     38 C105        0.7660   -4.4590    4.6680 C.3     0  LIG0        0.1096
     39 C113        1.0990   -3.1010    5.1070 C.3     0  LIG0        0.0116
     40 C121        2.5630   -2.9870    5.2000 C.3     0  LIG0        0.0006
     41 C125        2.9870   -1.6530    5.6840 C.3     0  LIG0        0.0000
     42 C123        4.4430   -1.4720    5.4350 C.3     0  LIG0        0.0003
     43 C117        4.7250   -0.3250    4.5730 C.3     0  LIG0        0.0047
     44 C109        5.9200   -0.5370    3.7590 C.3     0  LIG0        0.0257
     45  C98        5.5070   -0.9150    2.4710 C.2     0  LIG0       -0.0304
     46  C94        6.2120   -1.8590    1.8570 C.2     0  LIG0       -0.0260
     47 C100        5.8690   -2.0890    0.5280 C.3     0  LIG0        0.0513
     48  C92        6.7250   -3.1170   -0.0280 C.2     0  LIG0       -0.0260
     49  C96        6.6770   -3.4580   -1.2650 C.2     0  LIG0       -0.0304
     50 C107        5.7350   -2.8860   -2.2400 C.3     0  LIG0        0.0257
     51 C115        6.3250   -2.9740   -3.5930 C.3     0  LIG0        0.0047
     52 C119        5.4330   -2.3520   -4.5940 C.3     0  LIG0        0.0003
     53 C111        6.1670   -2.0050   -5.8170 C.3     0  LIG0        0.0000
     54 C102        5.2660   -1.4660   -6.8770 C.3     0  LIG0        0.0000
@<TRIPOS>BOND
     1    54    53    1
     2    53    52    1
     3    52    51    1
     4    51    50    1
     5    27    25    2
     6    50    49    1
     7    26    25    1
     8    25    24    1
     9    25    28    1
    10    49    48    2
    11    24    23    1
    12    28    29    1
    13    48    47    1
    14    29    30    1
    15    23    22    1
    16    47    46    1
    17    30    31    1
    18    21    22    1
    19    21    20    1
    20    22    35    1
    21    20    18    1
    22    19    18    2
    23    46    45    2
    24    18    17    1
    25    31    34    1
    26    31    33    1
    27    31    32    1
    28    35    36    1
    29    45    44    1
    30    37    36    2
    31    17    16    1
    32    36    38    1
    33    44    43    1
    34    16    15    1
    35    43    42    1
    36    38    39    1
    37    15    14    1
    38    39    40    1
    39     1     2    1
    40    40    41    1
    41    42    41    1
    42    14    13    1
    43    13    12    1
    44     2     3    1
    45     3     4    1
    46    12    11    1
    47     4     5    1
    48     5     6    1
    49    11    10    1
    50    10     9    1
    51     9     8    1
    52     8     7    1
    53     6     7    1
