@<TRIPOS>MOLECULE
/Users/xuhangdai/Desktop/Projects/OptimalTransport/extra_bio_ligands_boltz_af3/boltz_results_1ln1_DLP/1ln1_DLP_model_15_chainB.pdb
 54 53 0 0 0
SMALL
GASTEIGER

@<TRIPOS>ATOM
      1 C101        2.8990  -10.6820    6.5050 C.3     0  LIG0        0.0000
      2 C110        3.6000   -9.3890    6.7850 C.3     0  LIG0        0.0000
      3 C118        3.5540   -9.0710    8.2020 C.3     0  LIG0        0.0003
      4 C114        4.3710   -7.9010    8.5540 C.3     0  LIG0        0.0047
      5 C106        4.0520   -7.4540    9.9090 C.3     0  LIG0        0.0257
      6  C95        4.7770   -6.2160   10.2450 C.2     0  LIG0       -0.0307
      7  C91        4.2890   -5.4190   11.1590 C.2     0  LIG0       -0.0307
      8  C99        3.0110   -5.6990   11.7800 C.3     0  LIG0        0.0257
      9  C93        2.2860   -4.5000   11.9950 C.3     0  LIG0        0.0047
     10  C97        0.9780   -4.7070   12.3820 C.3     0  LIG0        0.0003
     11 C108        0.1370   -3.5790   12.4830 C.3     0  LIG0        0.0000
     12 C116       -1.2520   -4.0170   12.2770 C.3     0  LIG0        0.0000
     13 C122       -1.7380   -3.6530   10.9410 C.3     0  LIG0        0.0000
     14 C124       -1.4300   -4.6950    9.9340 C.3     0  LIG0        0.0000
     15 C120       -2.4540   -5.7350    9.8930 C.3     0  LIG0        0.0006
     16 C112       -2.3390   -6.4680    8.6380 C.3     0  LIG0        0.0116
     17 C104       -3.2890   -5.9230    7.6410 C.3     0  LIG0        0.1096
     18  C89       -2.6180   -5.7990    6.3250 C.2     0  LIG0        0.3171
     19  O81       -2.1530   -6.7290    5.7610 O.2     0  LIG0       -0.2501
     20  O85       -2.6130   -4.5690    5.8170 O.3     0  LIG0       -0.4444
     21 C126       -1.9750   -4.3380    4.5790 C.3     0  LIG0        0.2543
     22 C132       -1.4710   -2.9310    4.5980 C.3     0  LIG0        0.2420
     23 C127       -0.9560   -2.5280    3.2350 C.3     0  LIG0        0.1964
     24  O88       -1.7640   -1.5020    2.8080 O.3     0  LIG0       -0.3101
     25 P134       -1.4440   -0.7180    1.5070 P.3     0  LIG0        0.2140
     26  O83       -0.4960   -1.4610    0.6770 O.2     0  LIG0       -0.5172
     27  O84       -2.7160   -0.3690    0.8730 O.3     0  LIG0       -0.4373
     28  O87       -0.7400    0.6110    1.9480 O.3     0  LIG0       -0.3163
     29 C103       -0.9200    1.1080    3.1860 C.3     0  LIG0        0.1271
     30 C131       -0.2560    2.4270    3.2820 C.3     0  LIG0       -0.0402
     31 N133        0.6310    2.5570    4.4200 N.4     0  LIG0        0.3874
     32 C128       -0.1210    2.3800    5.6680 C.3     0  LIG0       -0.0959
     33 C129        1.6970    1.5210    4.3660 C.3     0  LIG0       -0.0959
     34 C130        1.2460    3.8540    4.4100 C.3     0  LIG0       -0.0959
     35  O86       -0.4380   -2.7780    5.5310 O.3     0  LIG0       -0.4457
     36  C90       -0.6060   -1.8200    6.4940 C.2     0  LIG0        0.3171
     37  O82       -1.4650   -1.0060    6.3820 O.2     0  LIG0       -0.2501
     38 C105        0.2930   -1.8400    7.6870 C.3     0  LIG0        0.1096
     39 C113        1.7150   -2.0120    7.3470 C.3     0  LIG0        0.0116
     40 C121        1.9840   -3.4540    7.1620 C.3     0  LIG0        0.0006
     41 C125        3.4410   -3.7350    7.0170 C.3     0  LIG0        0.0000
     42 C123        3.6290   -5.0930    6.4100 C.3     0  LIG0        0.0003
     43 C117        4.0580   -5.0170    4.9950 C.3     0  LIG0        0.0047
     44 C109        3.6500   -6.2080    4.2450 C.3     0  LIG0        0.0257
     45  C98        2.6320   -5.8160    3.3490 C.2     0  LIG0       -0.0304
     46  C94        1.6110   -6.6770    3.2020 C.2     0  LIG0       -0.0260
     47 C100        0.6680   -6.3170    2.2360 C.3     0  LIG0        0.0513
     48  C92       -0.3360   -7.3670    2.1410 C.2     0  LIG0       -0.0260
     49  C96       -1.2160   -7.3670    1.1990 C.2     0  LIG0       -0.0304
     50 C107       -1.3090   -6.3080    0.1660 C.3     0  LIG0        0.0257
     51 C115       -2.0050   -6.8670   -1.0230 C.3     0  LIG0        0.0047
     52 C119       -1.9050   -5.9250   -2.1730 C.3     0  LIG0        0.0003
     53 C111       -2.3120   -6.5880   -3.4330 C.3     0  LIG0        0.0000
     54 C102       -2.0930   -5.6870   -4.6170 C.3     0  LIG0        0.0000
@<TRIPOS>BOND
     1    54    53    1
     2    53    52    1
     3    52    51    1
     4    51    50    1
     5    50    49    1
     6    26    25    2
     7    27    25    1
     8    49    48    2
     9    25    28    1
    10    25    24    1
    11    28    29    1
    12    48    47    1
    13    47    46    1
    14    24    23    1
    15    29    30    1
    16    46    45    2
    17    23    22    1
    18    30    31    1
    19    45    44    1
    20    44    43    1
    21    33    31    1
    22    34    31    1
    23    31    32    1
    24    21    22    1
    25    21    20    1
    26    22    35    1
    27    43    42    1
    28    35    36    1
    29    19    18    2
    30    20    18    1
    31    18    17    1
    32    37    36    2
    33    42    41    1
    34    36    38    1
    35     1     2    1
    36     2     3    1
    37    41    40    1
    38    40    39    1
    39    39    38    1
    40    17    16    1
    41     3     4    1
    42     4     5    1
    43    16    15    1
    44    15    14    1
    45     5     6    1
    46    14    13    1
    47     6     7    2
    48    13    12    1
    49     7     8    1
    50     8     9    1
    51     9    10    1
    52    12    11    1
    53    10    11    1
