@<TRIPOS>MOLECULE
/Users/xuhangdai/Desktop/Projects/OptimalTransport/extra_bio_ligands_boltz_af3/boltz_results_1ln1_DLP/1ln1_DLP_model_34_chainB.pdb
 54 53 0 0 0
SMALL
GASTEIGER

@<TRIPOS>ATOM
      1 C101        2.0050  -10.6340   -5.3890 C.3     0  LIG0        0.0000
      2 C110        0.7310  -10.8030   -6.1230 C.3     0  LIG0        0.0000
      3 C118       -0.3100   -9.8730   -5.6620 C.3     0  LIG0        0.0003
      4 C114       -1.5970  -10.1210   -6.3340 C.3     0  LIG0        0.0047
      5 C106       -2.4190   -8.9070   -6.3850 C.3     0  LIG0        0.0257
      6  C95       -3.5300   -9.0980   -7.3180 C.2     0  LIG0       -0.0307
      7  C91       -4.0900   -8.1140   -7.9630 C.2     0  LIG0       -0.0307
      8  C99       -3.6980   -6.7280   -7.8790 C.3     0  LIG0        0.0257
      9  C93       -4.2910   -5.9830   -8.9380 C.3     0  LIG0        0.0047
     10  C97       -3.6300   -5.0730   -9.5850 C.3     0  LIG0        0.0003
     11 C108       -3.6760   -3.6790   -9.4620 C.3     0  LIG0        0.0000
     12 C116       -2.4860   -3.1380  -10.1140 C.3     0  LIG0        0.0000
     13 C122       -1.5670   -2.5280   -9.1520 C.3     0  LIG0        0.0000
     14 C124       -0.6740   -3.5160   -8.5160 C.3     0  LIG0        0.0000
     15 C120        0.5560   -3.7200   -9.2450 C.3     0  LIG0        0.0006
     16 C112        1.5240   -4.4110   -8.4000 C.3     0  LIG0        0.0116
     17 C104        2.4840   -3.4440   -7.8360 C.3     0  LIG0        0.1096
     18  C89        2.6740   -3.6880   -6.3920 C.2     0  LIG0        0.3171
     19  O81        3.2750   -4.6290   -5.9890 O.2     0  LIG0       -0.2501
     20  O85        2.1460   -2.7650   -5.5870 O.3     0  LIG0       -0.4444
     21 C126        2.3910   -2.8230   -4.2020 C.3     0  LIG0        0.2543
     22 C132        1.3340   -2.0260   -3.4960 C.3     0  LIG0        0.2420
     23 C127        1.6370   -1.9250   -2.0260 C.3     0  LIG0        0.1964
     24  O88        1.8960   -0.6030   -1.7480 O.3     0  LIG0       -0.3101
     25 P134        1.7800   -0.0660   -0.2830 P.3     0  LIG0        0.2140
     26  O83        2.3330   -1.0360    0.6620 O.3     0  LIG0       -0.4373
     27  O84        2.3670    1.2690   -0.2450 O.2     0  LIG0       -0.5172
     28  O87        0.2480    0.0620    0.0090 O.3     0  LIG0       -0.3163
     29 C103       -0.5230    0.8220   -0.8100 C.3     0  LIG0        0.1271
     30 C131       -1.7600    1.2070   -0.0980 C.3     0  LIG0       -0.0402
     31 N133       -2.9750    0.5880   -0.6080 N.4     0  LIG0        0.3874
     32 C128       -3.1210    0.8510   -2.0460 C.3     0  LIG0       -0.0959
     33 C129       -2.9400   -0.8680   -0.4010 C.3     0  LIG0       -0.0959
     34 C130       -4.1060    1.1260    0.0970 C.3     0  LIG0       -0.0959
     35  O86        0.0740   -2.6270   -3.6250 O.3     0  LIG0       -0.4457
     36  C90       -0.9060   -1.9550   -4.2960 C.2     0  LIG0        0.3171
     37  O82       -0.6550   -0.9630   -4.9110 O.2     0  LIG0       -0.2501
     38 C105       -2.3030   -2.5130   -4.2100 C.3     0  LIG0        0.1096
     39 C113       -2.4290   -3.8550   -4.8100 C.3     0  LIG0        0.0116
     40 C121       -1.7300   -4.8520   -3.9810 C.3     0  LIG0        0.0006
     41 C125       -2.5500   -6.0430   -3.6430 C.3     0  LIG0        0.0000
     42 C123       -1.7020   -7.2350   -3.3330 C.3     0  LIG0        0.0003
     43 C117       -0.9070   -7.1070   -2.1020 C.3     0  LIG0        0.0047
     44 C109        0.3940   -7.7650   -2.2110 C.3     0  LIG0        0.0257
     45  C98        1.3880   -6.9200   -1.7010 C.2     0  LIG0       -0.0304
     46  C94        2.5590   -6.8010   -2.3060 C.2     0  LIG0       -0.0260
     47 C100        3.4950   -5.9170   -1.7680 C.3     0  LIG0        0.0513
     48  C92        4.6840   -5.8780   -2.5930 C.2     0  LIG0       -0.0260
     49  C96        5.7440   -5.2220   -2.2650 C.2     0  LIG0       -0.0304
     50 C107        5.8640   -4.4000   -1.0480 C.3     0  LIG0        0.0257
     51 C115        7.2850   -4.0510   -0.8030 C.3     0  LIG0        0.0047
     52 C119        7.4190   -3.1500    0.3700 C.3     0  LIG0        0.0003
     53 C111        8.3860   -3.6700    1.3470 C.3     0  LIG0        0.0000
     54 C102        8.5320   -2.7660    2.5370 C.3     0  LIG0        0.0000
@<TRIPOS>BOND
     1    12    11    1
     2    12    13    1
     3    10    11    1
     4    10     9    1
     5    15    14    1
     6    15    16    1
     7    13    14    1
     8     9     8    1
     9    16    17    1
    10     7     8    1
    11     7     6    2
    12    17    18    1
    13     6     5    1
    14    18    19    2
    15    18    20    1
    16     5     4    1
    17     4     3    1
    18     2     3    1
    19     2     1    1
    20    20    21    1
    21    37    36    2
    22    39    38    1
    23    39    40    1
    24    36    38    1
    25    36    35    1
    26    21    22    1
    27    40    41    1
    28    41    42    1
    29    35    22    1
    30    22    23    1
    31    42    43    1
    32    48    49    2
    33    48    47    1
    34    46    47    1
    35    46    45    2
    36    49    50    1
    37    44    43    1
    38    44    45    1
    39    32    31    1
    40    23    24    1
    41    24    25    1
    42    50    51    1
    43    29    30    1
    44    29    28    1
    45    51    52    1
    46    31    33    1
    47    31    30    1
    48    31    34    1
    49    25    27    2
    50    25    28    1
    51    25    26    1
    52    52    53    1
    53    53    54    1
