@<TRIPOS>MOLECULE
/Users/xuhangdai/Desktop/Projects/OptimalTransport/extra_bio_ligands_boltz_af3/boltz_results_1ln1_DLP/1ln1_DLP_model_8_chainB.pdb
 54 53 0 0 0
SMALL
GASTEIGER

@<TRIPOS>ATOM
      1 C101       -8.4150    2.8800    7.1240 C.3     0  LIG0        0.0000
      2 C110       -7.6850    3.2870    8.3370 C.3     0  LIG0        0.0000
      3 C118       -6.2280    3.0760    8.2360 C.3     0  LIG0        0.0003
      4 C114       -5.5570    3.3550    9.5110 C.3     0  LIG0        0.0047
      5 C106       -4.1940    3.8610    9.3110 C.3     0  LIG0        0.0257
      6  C95       -3.6220    4.3180   10.5730 C.2     0  LIG0       -0.0307
      7  C91       -2.8340    5.3490   10.6910 C.2     0  LIG0       -0.0307
      8  C99       -2.3040    6.1780    9.6430 C.3     0  LIG0        0.0257
      9  C93       -2.6250    7.5340    9.9240 C.3     0  LIG0        0.0047
     10  C97       -2.0400    8.6110    9.4740 C.3     0  LIG0        0.0003
     11 C108       -1.1550    8.7530    8.3520 C.3     0  LIG0        0.0000
     12 C116       -1.5260    9.9700    7.6540 C.3     0  LIG0        0.0000
     13 C122       -1.8930    9.8030    6.2700 C.3     0  LIG0        0.0000
     14 C124       -2.9260    8.7940    5.9960 C.3     0  LIG0        0.0000
     15 C120       -4.2110    9.3550    5.6510 C.3     0  LIG0        0.0006
     16 C112       -5.0020    8.3940    4.8920 C.3     0  LIG0        0.0116
     17 C104       -4.8770    8.6360    3.4350 C.3     0  LIG0        0.1096
     18  C89       -4.7900    7.3640    2.6880 C.2     0  LIG0        0.3171
     19  O81       -5.6920    6.5990    2.6650 O.2     0  LIG0       -0.2501
     20  O85       -3.6510    7.1560    2.0200 O.3     0  LIG0       -0.4444
     21 C126       -3.4740    5.9490    1.2850 C.3     0  LIG0        0.2543
     22 C132       -2.0330    5.5510    1.3010 C.3     0  LIG0        0.2420
     23 C127       -1.7970    4.3290    0.4480 C.3     0  LIG0        0.1964
     24  O88       -1.2440    4.7450   -0.7370 O.3     0  LIG0       -0.3101
     25 P134       -0.3350    3.7800   -1.5680 P.3     0  LIG0        0.2140
     26  O83       -1.0000    2.4900   -1.7600 O.3     0  LIG0       -0.4373
     27  O84        0.0660    4.4790   -2.7830 O.2     0  LIG0       -0.5172
     28  O87        0.9630    3.5270   -0.7120 O.3     0  LIG0       -0.3163
     29 C103        1.7430    4.5820   -0.3490 C.3     0  LIG0        0.1271
     30 C131        3.1420    4.1260   -0.1700 C.3     0  LIG0       -0.0402
     31 N133        3.5820    4.0150    1.2070 N.4     0  LIG0        0.3874
     32 C128        3.4760    5.3100    1.8890 C.3     0  LIG0       -0.0959
     33 C129        2.7370    3.0370    1.9380 C.3     0  LIG0       -0.0959
     34 C130        4.9390    3.5600    1.2490 C.3     0  LIG0       -0.0959
     35  O86       -1.5870    5.2790    2.5990 O.3     0  LIG0       -0.4457
     36  C90       -0.5330    6.0080    3.0810 C.2     0  LIG0        0.3171
     37  O82       -0.1260    6.9390    2.4640 O.2     0  LIG0       -0.2501
     38 C105        0.0970    5.5930    4.3740 C.3     0  LIG0        0.1096
     39 C113       -0.8600    5.2900    5.4200 C.3     0  LIG0        0.0116
     40 C121       -1.1710    3.8540    5.3990 C.3     0  LIG0        0.0006
     41 C125       -1.8110    3.3990    6.6390 C.3     0  LIG0        0.0000
     42 C123       -2.4840    2.0780    6.6110 C.3     0  LIG0        0.0003
     43 C117       -2.8810    1.5020    5.3350 C.3     0  LIG0        0.0047
     44 C109       -4.3290    1.5470    5.0460 C.3     0  LIG0        0.0257
     45  C98       -4.5290    1.4470    3.6620 C.2     0  LIG0       -0.0304
     46  C94       -5.4170    2.2120    3.0270 C.2     0  LIG0       -0.0260
     47 C100       -5.4440    2.2130    1.6260 C.3     0  LIG0        0.0513
     48  C92       -6.5020    3.0750    1.1440 C.2     0  LIG0       -0.0260
     49  C96       -6.8170    3.2110   -0.0980 C.2     0  LIG0       -0.0304
     50 C107       -6.0550    2.6570   -1.2330 C.3     0  LIG0        0.0257
     51 C115       -6.9510    2.3650   -2.3810 C.3     0  LIG0        0.0047
     52 C119       -6.1710    1.9490   -3.5810 C.3     0  LIG0        0.0003
     53 C111       -6.9360    1.1050   -4.4850 C.3     0  LIG0        0.0000
     54 C102       -6.1400    0.6400   -5.6580 C.3     0  LIG0        0.0000
@<TRIPOS>BOND
     1    54    53    1
     2    53    52    1
     3    52    51    1
     4    27    25    2
     5    51    50    1
     6    26    25    1
     7    25    24    1
     8    25    28    1
     9    50    49    1
    10    24    23    1
    11    28    29    1
    12    29    30    1
    13    30    31    1
    14    49    48    2
    15    23    22    1
    16    48    47    1
    17    31    34    1
    18    31    32    1
    19    31    33    1
    20    21    22    1
    21    21    20    1
    22    22    35    1
    23    47    46    1
    24    20    18    1
    25    37    36    2
    26    35    36    1
    27    19    18    2
    28    18    17    1
    29    46    45    2
    30    36    38    1
    31    17    16    1
    32    45    44    1
    33    38    39    1
    34    16    15    1
    35    44    43    1
    36    43    42    1
    37    40    39    1
    38    40    41    1
    39    15    14    1
    40    14    13    1
    41    13    12    1
    42    42    41    1
    43     1     2    1
    44    12    11    1
    45     3     2    1
    46     3     4    1
    47    11    10    1
    48     5     4    1
    49     5     6    1
    50    10     9    1
    51     8     9    1
    52     8     7    1
    53     6     7    2
