@<TRIPOS>MOLECULE
/Users/xuhangdai/Desktop/Projects/OptimalTransport/extra_bio_ligands_boltz_af3/boltz_results_1ln1_DLP/1ln1_DLP_model_7_chainB.pdb
 54 53 0 0 0
SMALL
GASTEIGER

@<TRIPOS>ATOM
      1 C101       -7.0280   -1.1770   -6.4230 C.3     0  LIG0        0.0000
      2 C110       -7.4190   -0.0450   -7.2910 C.3     0  LIG0        0.0000
      3 C118       -6.5190    1.1190   -7.1240 C.3     0  LIG0        0.0000
      4 C114       -7.0090    2.2770   -7.8980 C.3     0  LIG0        0.0000
      5 C106       -5.9020    3.2130   -8.1390 C.3     0  LIG0        0.0000
      6  C95       -6.3260    4.2690   -9.0750 C.3     0  LIG0        0.0000
      7  C91       -5.5200    4.6510  -10.0380 C.3     0  LIG0        0.0000
      8  C99       -4.4700    3.7690  -10.4920 C.3     0  LIG0        0.0000
      9  C93       -3.3810    4.5050  -11.0430 C.3     0  LIG0        0.0000
     10  C97       -2.6190    3.8020  -11.9270 C.3     0  LIG0        0.0000
     11 C108       -1.2020    3.8830  -11.8710 C.3     0  LIG0        0.0000
     12 C116       -0.6830    2.7080  -12.5910 C.3     0  LIG0        0.0000
     13 C122        0.1220    1.8390  -11.7280 C.3     0  LIG0        0.0000
     14 C124       -0.6900    1.0730  -10.7620 C.3     0  LIG0        0.0000
     15 C120       -0.8670   -0.3140  -11.1760 C.3     0  LIG0        0.0006
     16 C112       -1.2060   -1.1210  -10.0110 C.3     0  LIG0        0.0116
     17 C104        0.0180   -1.7350   -9.4390 C.3     0  LIG0        0.1096
     18  C89       -0.0030   -1.6130   -7.9660 C.2     0  LIG0        0.3171
     19  O81       -0.8920   -2.0310   -7.3150 O.2     0  LIG0       -0.2501
     20  O85        1.0700   -1.0180   -7.4350 O.3     0  LIG0       -0.4444
     21 C126        1.1320   -0.8340   -6.0300 C.3     0  LIG0        0.2543
     22 C132        1.7530    0.5020   -5.7690 C.3     0  LIG0        0.2420
     23 C127        2.0630    0.6780   -4.2960 C.3     0  LIG0        0.1964
     24  O88        3.3560    0.2560   -4.1050 O.3     0  LIG0       -0.3101
     25 P134        4.1350    0.6910   -2.8250 P.3     0  LIG0        0.2140
     26  O83        3.3790    0.3140   -1.6260 O.3     0  LIG0       -0.4373
     27  O84        5.4900    0.1540   -2.9170 O.2     0  LIG0       -0.5172
     28  O87        4.2370    2.2670   -2.8630 O.3     0  LIG0       -0.3163
     29 C103        4.9060    2.8700   -3.8970 C.3     0  LIG0        0.1271
     30 C131        5.2340    4.2670   -3.5300 C.3     0  LIG0       -0.0402
     31 N133        4.4820    5.2950   -4.2410 N.4     0  LIG0        0.3874
     32 C128        4.6290    5.1340   -5.6930 C.3     0  LIG0       -0.0959
     33 C129        3.0300    5.2020   -3.9160 C.3     0  LIG0       -0.0959
     34 C130        4.9570    6.5900   -3.8630 C.3     0  LIG0       -0.0959
     35  O86        0.8960    1.5260   -6.1890 O.3     0  LIG0       -0.4457
     36  C90        1.4240    2.4850   -7.0070 C.2     0  LIG0        0.3171
     37  O82        2.6030    2.5850   -7.1420 O.2     0  LIG0       -0.2501
     38 C105        0.4770    3.3900   -7.7360 C.3     0  LIG0        0.1096
     39 C113       -0.4600    4.0950   -6.8260 C.3     0  LIG0        0.0116
     40 C121       -1.6510    3.2380   -6.5920 C.3     0  LIG0        0.0006
     41 C125       -2.7100    3.9470   -5.7960 C.3     0  LIG0        0.0000
     42 C123       -3.7470    2.9770   -5.3050 C.3     0  LIG0        0.0000
     43 C117       -3.4640    2.4880   -3.9360 C.3     0  LIG0        0.0000
     44 C109       -3.9150    1.0930   -3.7480 C.3     0  LIG0        0.0000
     45  C98       -2.7450    0.3170   -3.7090 C.3     0  LIG0        0.0003
     46  C94       -2.8280   -1.0020   -3.8640 C.3     0  LIG0        0.0047
     47 C100       -1.8270   -1.7080   -3.2090 C.3     0  LIG0        0.0257
     48  C92       -1.6270   -3.0120   -3.8210 C.2     0  LIG0       -0.0307
     49  C96       -0.8390   -3.8930   -3.2840 C.2     0  LIG0       -0.0307
     50 C107       -0.1860   -3.7290   -1.9700 C.3     0  LIG0        0.0257
     51 C115        0.7950   -4.8280   -1.7880 C.3     0  LIG0        0.0047
     52 C119        1.5460   -4.6600   -0.5260 C.3     0  LIG0        0.0003
     53 C111        1.0610   -5.5370    0.5390 C.3     0  LIG0        0.0000
     54 C102        1.9140   -5.4590    1.7700 C.3     0  LIG0        0.0000
@<TRIPOS>BOND
     1    12    11    1
     2    12    13    1
     3    10    11    1
     4    10     9    1
     5    13    14    1
     6    15    14    1
     7    15    16    1
     8     9     8    1
     9     8     7    1
    10     7     6    1
    11    16    17    1
    12    17    18    1
    13     6     5    1
    14     5     4    1
    15    18    20    1
    16    18    19    2
    17     4     3    1
    18    38    36    1
    19    38    39    1
    20    20    21    1
    21     2     3    1
    22     2     1    1
    23    37    36    2
    24    36    35    1
    25    39    40    1
    26    40    41    1
    27    35    22    1
    28    21    22    1
    29    41    42    1
    30    22    23    1
    31    32    31    1
    32    42    43    1
    33    23    24    1
    34    31    33    1
    35    31    34    1
    36    31    30    1
    37    24    25    1
    38    43    44    1
    39    29    30    1
    40    29    28    1
    41    46    45    1
    42    46    47    1
    43    48    49    2
    44    48    47    1
    45    44    45    1
    46    49    50    1
    47    27    25    2
    48    28    25    1
    49    25    26    1
    50    50    51    1
    51    51    52    1
    52    52    53    1
    53    53    54    1
