@<TRIPOS>MOLECULE
/Users/xuhangdai/Desktop/Projects/OptimalTransport/extra_bio_ligands_boltz_af3/boltz_results_1ln1_DLP/1ln1_DLP_model_40_chainB.pdb
 54 53 0 0 0
SMALL
GASTEIGER

@<TRIPOS>ATOM
      1 C101        7.8750    3.7620   -7.2930 C.3     0  LIG0        0.0000
      2 C110        7.6700    2.6760   -8.2840 C.3     0  LIG0        0.0000
      3 C118        7.2230    1.4310   -7.6540 C.3     0  LIG0        0.0000
      4 C114        7.1530    0.3220   -8.6370 C.3     0  LIG0        0.0000
      5 C106        6.0210   -0.5580   -8.3380 C.3     0  LIG0        0.0000
      6  C95        5.9340   -1.6620   -9.3220 C.3     0  LIG0        0.0000
      7  C91        4.7540   -2.1240   -9.7000 C.3     0  LIG0        0.0000
      8  C99        3.5720   -1.3170   -9.5050 C.3     0  LIG0        0.0000
      9  C93        2.3650   -2.0730   -9.6940 C.3     0  LIG0        0.0000
     10  C97        1.2990   -1.3000  -10.0430 C.3     0  LIG0        0.0000
     11 C108       -0.0200   -1.6630   -9.7700 C.3     0  LIG0        0.0000
     12 C116       -0.8480   -0.4470   -9.8060 C.3     0  LIG0        0.0000
     13 C122       -1.0100    0.1330   -8.4580 C.3     0  LIG0        0.0000
     14 C124        0.0910    1.0750   -8.1330 C.3     0  LIG0        0.0000
     15 C120       -0.3480    2.4510   -8.2020 C.3     0  LIG0        0.0006
     16 C112        0.6440    3.3010   -7.5570 C.3     0  LIG0        0.0116
     17 C104        0.0160    4.0910   -6.4800 C.3     0  LIG0        0.1096
     18  C89        0.8230    3.9980   -5.2510 C.2     0  LIG0        0.3171
     19  O81        1.9090    4.4730   -5.1860 O.2     0  LIG0       -0.2501
     20  O85        0.2520    3.3760   -4.2200 O.3     0  LIG0       -0.4444
     21 C126        0.9700    3.2480   -3.0070 C.3     0  LIG0        0.2543
     22 C132        0.6430    1.9120   -2.4000 C.3     0  LIG0        0.2420
     23 C127        1.2500    1.7810   -1.0270 C.3     0  LIG0        0.1964
     24  O88        0.2540    2.0830   -0.1120 O.3     0  LIG0       -0.3101
     25 P134        0.3550    1.5720    1.3620 P.3     0  LIG0        0.2140
     26  O83        1.6470    1.9380    1.9370 O.2     0  LIG0       -0.5172
     27  O84       -0.8180    2.0620    2.0880 O.3     0  LIG0       -0.4373
     28  O87        0.2660   -0.0010    1.3280 O.3     0  LIG0       -0.3163
     29 C103       -0.7940   -0.6020    0.7030 C.3     0  LIG0        0.1271
     30 C131       -0.9640   -1.9860    1.2040 C.3     0  LIG0       -0.0402
     31 N133       -0.4540   -3.0280    0.3170 N.4     0  LIG0        0.3874
     32 C128       -1.2270   -3.0560   -0.9280 C.3     0  LIG0       -0.0959
     33 C129        0.9560   -2.7780   -0.0240 C.3     0  LIG0       -0.0959
     34 C130       -0.5570   -4.3050    0.9730 C.3     0  LIG0       -0.0959
     35  O86        1.1270    0.8740   -3.2090 O.3     0  LIG0       -0.4457
     36  C90        0.2160   -0.0370   -3.6860 C.2     0  LIG0        0.3171
     37  O82       -0.8850   -0.0500   -3.2500 O.2     0  LIG0       -0.2501
     38 C105        0.6380   -0.9870   -4.7700 C.3     0  LIG0        0.1096
     39 C113        1.9410   -1.6260   -4.5490 C.3     0  LIG0        0.0116
     40 C121        3.0010   -0.6160   -4.6990 C.3     0  LIG0        0.0006
     41 C125        4.3460   -1.1850   -4.9990 C.3     0  LIG0        0.0000
     42 C123        5.3600   -0.7800   -3.9700 C.3     0  LIG0        0.0000
     43 C117        6.0000    0.5050   -4.2170 C.3     0  LIG0        0.0000
     44 C109        6.4570    1.1080   -2.9520 C.3     0  LIG0        0.0000
     45  C98        6.5120    2.5160   -3.0480 C.3     0  LIG0        0.0003
     46  C94        5.4120    3.2560   -2.9690 C.3     0  LIG0        0.0047
     47 C100        5.1880    4.0270   -1.8230 C.3     0  LIG0        0.0257
     48  C92        4.3570    5.1760   -2.1750 C.2     0  LIG0       -0.0307
     49  C96        3.9060    6.0370   -1.3140 C.2     0  LIG0       -0.0307
     50 C107        4.1260    5.9680    0.1380 C.3     0  LIG0        0.0257
     51 C115        3.5080    7.1520    0.7890 C.3     0  LIG0        0.0047
     52 C119        3.4420    6.9910    2.2540 C.3     0  LIG0        0.0003
     53 C111        4.1590    8.0700    2.9600 C.3     0  LIG0        0.0000
     54 C102        4.0740    7.9180    4.4510 C.3     0  LIG0        0.0000
@<TRIPOS>BOND
     1    10    11    1
     2    10     9    1
     3    12    11    1
     4    12    13    1
     5     7     8    1
     6     7     6    1
     7     9     8    1
     8     6     5    1
     9     4     5    1
    10     4     3    1
    11    13    14    1
    12     2     3    1
    13     2     1    1
    14    15    14    1
    15    15    16    1
    16    16    17    1
    17    17    18    1
    18    18    19    2
    19    18    20    1
    20    41    40    1
    21    41    42    1
    22    38    39    1
    23    38    36    1
    24    40    39    1
    25    20    21    1
    26    43    42    1
    27    43    44    1
    28    36    37    2
    29    36    35    1
    30    35    22    1
    31    45    46    1
    32    45    44    1
    33    21    22    1
    34    46    47    1
    35    22    23    1
    36    48    47    1
    37    48    49    2
    38    49    50    1
    39    23    24    1
    40    32    31    1
    41    24    25    1
    42    33    31    1
    43    50    51    1
    44    31    34    1
    45    31    30    1
    46    29    30    1
    47    29    28    1
    48    51    52    1
    49    28    25    1
    50    25    26    2
    51    25    27    1
    52    52    53    1
    53    53    54    1
