@<TRIPOS>MOLECULE
/Users/xuhangdai/Desktop/Projects/OptimalTransport/extra_bio_ligands_boltz_af3/boltz_results_1ln1_DLP/1ln1_DLP_model_13_chainB.pdb
 54 53 0 0 0
SMALL
GASTEIGER

@<TRIPOS>ATOM
      1 C101       -4.0350   10.8420    1.0920 C.3     0  LIG0        0.0000
      2 C110       -3.4860    9.8970    0.0790 C.3     0  LIG0        0.0000
      3 C118       -4.3230    9.8370   -1.0980 C.3     0  LIG0        0.0003
      4 C114       -3.8090    8.9630   -2.1410 C.3     0  LIG0        0.0047
      5 C106       -4.7240    8.8760   -3.2640 C.3     0  LIG0        0.0257
      6  C95       -4.4940    7.6920   -4.0880 C.2     0  LIG0       -0.0307
      7  C91       -5.4570    6.8950   -4.4200 C.2     0  LIG0       -0.0307
      8  C99       -6.7610    7.0360   -3.8690 C.3     0  LIG0        0.0257
      9  C93       -7.6100    6.0540   -4.1760 C.3     0  LIG0        0.0047
     10  C97       -7.9540    4.9510   -3.7210 C.3     0  LIG0        0.0003
     11 C108       -9.1670    4.4480   -3.4470 C.3     0  LIG0        0.0000
     12 C116       -9.0430    3.1860   -2.8050 C.3     0  LIG0        0.0000
     13 C122       -9.2020    3.1600   -1.3720 C.3     0  LIG0        0.0000
     14 C124       -8.4050    4.1130   -0.6020 C.3     0  LIG0        0.0000
     15 C120       -8.2330    3.6750    0.7650 C.3     0  LIG0        0.0006
     16 C112       -7.9200    4.7790    1.6260 C.3     0  LIG0        0.0116
     17 C104       -7.6180    4.2830    2.9690 C.3     0  LIG0        0.1096
     18  C89       -6.1530    4.1480    3.1450 C.2     0  LIG0        0.3171
     19  O81       -5.4830    5.0760    3.4350 O.2     0  LIG0       -0.2501
     20  O85       -5.6480    2.9220    2.9990 O.3     0  LIG0       -0.4444
     21 C126       -4.2660    2.7340    3.2400 C.3     0  LIG0        0.2543
     22 C132       -3.7660    1.6660    2.3270 C.3     0  LIG0        0.2420
     23 C127       -2.3110    1.3470    2.6070 C.3     0  LIG0        0.1964
     24  O88       -2.2780    0.1130    3.2270 O.3     0  LIG0       -0.3101
     25 P134       -0.9660   -0.7340    3.2210 P.3     0  LIG0        0.2140
     26  O83        0.1920    0.1230    3.4820 O.2     0  LIG0       -0.5172
     27  O84       -1.1550   -1.8540    4.1410 O.3     0  LIG0       -0.4373
     28  O87       -0.8110   -1.3180    1.7780 O.3     0  LIG0       -0.3163
     29 C103       -1.8650   -1.9820    1.2100 C.3     0  LIG0        0.1271
     30 C131       -1.3770   -2.9330    0.1910 C.3     0  LIG0       -0.0402
     31 N133       -1.3700   -2.4160   -1.1710 N.4     0  LIG0        0.3874
     32 C128       -2.7040   -1.9110   -1.5280 C.3     0  LIG0       -0.0959
     33 C129       -0.4000   -1.3050   -1.3040 C.3     0  LIG0       -0.0959
     34 C130       -1.0010   -3.4620   -2.0790 C.3     0  LIG0       -0.0959
     35  O86       -3.8770    2.0650    0.9910 O.3     0  LIG0       -0.4457
     36  C90       -4.6420    1.2910    0.1630 C.2     0  LIG0        0.3171
     37  O82       -5.0660    0.2460    0.5400 O.2     0  LIG0       -0.2501
     38 C105       -4.9410    1.8030   -1.2080 C.3     0  LIG0        0.1096
     39 C113       -3.7820    2.3860   -1.8900 C.3     0  LIG0        0.0116
     40 C121       -3.6510    3.8060   -1.4970 C.3     0  LIG0        0.0006
     41 C125       -2.3550    4.3910   -1.9330 C.3     0  LIG0        0.0000
     42 C123       -2.1230    5.7010   -1.2640 C.3     0  LIG0        0.0003
     43 C117       -0.7920    5.8610   -0.6550 C.3     0  LIG0        0.0047
     44 C109       -0.7180    5.6930    0.7670 C.3     0  LIG0        0.0257
     45  C98       -1.6470    6.4390    1.4890 C.2     0  LIG0       -0.0304
     46  C94       -1.9560    6.2840    2.7200 C.2     0  LIG0       -0.0260
     47 C100       -1.2700    5.5410    3.6820 C.3     0  LIG0        0.0513
     48  C92       -1.7640    5.9120    4.9870 C.2     0  LIG0       -0.0260
     49  C96       -1.4810    5.3230    6.0940 C.2     0  LIG0       -0.0304
     50 C107       -0.6990    4.0960    6.2750 C.3     0  LIG0        0.0257
     51 C115       -0.2290    4.0150    7.6720 C.3     0  LIG0        0.0047
     52 C119        0.5610    2.7920    7.9220 C.3     0  LIG0        0.0003
     53 C111        1.2870    2.8230    9.2090 C.3     0  LIG0        0.0000
     54 C102        2.5210    3.6800    9.1190 C.3     0  LIG0        0.0000
@<TRIPOS>BOND
     1     7     6    2
     2     7     8    1
     3     9     8    1
     4     9    10    1
     5     6     5    1
     6    10    11    1
     7    11    12    1
     8     5     4    1
     9    12    13    1
    10     4     3    1
    11    34    31    1
    12    41    40    1
    13    41    42    1
    14    39    40    1
    15    39    38    1
    16    32    31    1
    17    13    14    1
    18    33    31    1
    19    42    43    1
    20    38    36    1
    21    31    30    1
    22     3     2    1
    23    43    44    1
    24    14    15    1
    25     2     1    1
    26    36    37    2
    27    36    35    1
    28    30    29    1
    29    15    16    1
    30    44    45    1
    31    35    22    1
    32    29    28    1
    33    45    46    2
    34    16    17    1
    35    28    25    1
    36    22    23    1
    37    22    21    1
    38    23    24    1
    39    46    47    1
    40    17    18    1
    41    20    18    1
    42    20    21    1
    43    18    19    2
    44    25    24    1
    45    25    26    2
    46    25    27    1
    47    47    48    1
    48    48    49    2
    49    49    50    1
    50    50    51    1
    51    51    52    1
    52    52    53    1
    53    54    53    1
