@<TRIPOS>MOLECULE
/Users/xuhangdai/Desktop/Projects/OptimalTransport/extra_bio_ligands_boltz_af3/boltz_results_1ln1_DLP/1ln1_DLP_model_11_chainB.pdb
 54 53 0 0 0
SMALL
GASTEIGER

@<TRIPOS>ATOM
      1 C101        1.3040   -3.0500   12.3090 C.3     0  LIG0        0.0000
      2 C110        0.3550   -1.9940   11.8350 C.3     0  LIG0        0.0000
      3 C118       -0.7820   -1.8580   12.7310 C.3     0  LIG0        0.0003
      4 C114       -1.6880   -0.7710   12.3500 C.3     0  LIG0        0.0047
      5 C106       -2.9370   -0.8560   13.0980 C.3     0  LIG0        0.0257
      6  C95       -3.9190    0.1450   12.6420 C.2     0  LIG0       -0.0304
      7  C91       -5.1510   -0.1960   12.4160 C.2     0  LIG0       -0.0260
      8  C99       -5.5730   -1.5670   12.4270 C.3     0  LIG0        0.0513
      9  C93       -6.7360   -1.7360   11.6310 C.2     0  LIG0       -0.0260
     10  C97       -7.0990   -3.0290   11.3830 C.2     0  LIG0       -0.0304
     11 C108       -8.1750   -3.2930   10.5170 C.3     0  LIG0        0.0257
     12 C116       -8.1490   -4.7070   10.1220 C.3     0  LIG0        0.0047
     13 C122       -7.2270   -4.9240    9.0010 C.3     0  LIG0        0.0003
     14 C124       -6.0370   -5.6290    9.4620 C.3     0  LIG0        0.0000
     15 C120       -5.2400   -6.1130    8.3500 C.3     0  LIG0        0.0006
     16 C112       -3.9570   -6.5450    8.8470 C.3     0  LIG0        0.0116
     17 C104       -3.2500   -7.2840    7.7870 C.3     0  LIG0        0.1096
     18  C89       -2.4040   -6.3520    7.0200 C.2     0  LIG0        0.3171
     19  O81       -1.3220   -6.0470    7.3980 O.2     0  LIG0       -0.2501
     20  O85       -2.9120   -5.8990    5.8760 O.3     0  LIG0       -0.4444
     21 C126       -2.0750   -5.1180    5.0410 C.3     0  LIG0        0.2543
     22 C132       -2.9110   -4.1310    4.2910 C.3     0  LIG0        0.2420
     23 C127       -2.0600   -3.3580    3.3180 C.3     0  LIG0        0.1964
     24  O88       -2.2210   -3.9370    2.0870 O.3     0  LIG0       -0.3101
     25 P134       -1.8720   -3.1150    0.8070 P.3     0  LIG0        0.2140
     26  O83       -0.5480   -2.5120    0.9480 O.3     0  LIG0       -0.4373
     27  O84       -2.0680   -3.9850   -0.3520 O.2     0  LIG0       -0.5172
     28  O87       -2.9210   -1.9410    0.7090 O.3     0  LIG0       -0.3163
     29 C103       -4.2520   -2.2450    0.6560 C.3     0  LIG0        0.1271
     30 C131       -4.9880   -1.1040    0.0850 C.3     0  LIG0       -0.0402
     31 N133       -5.7500   -0.3190    1.0510 N.4     0  LIG0        0.3874
     32 C128       -4.8500    0.2290    2.0930 C.3     0  LIG0       -0.0959
     33 C129       -6.7570   -1.1700    1.7100 C.3     0  LIG0       -0.0959
     34 C130       -6.3960    0.7690    0.3810 C.3     0  LIG0       -0.0959
     35  O86       -3.5240   -3.2130    5.1580 O.3     0  LIG0       -0.4457
     36  C90       -4.8890   -3.1230    5.1080 C.2     0  LIG0        0.3171
     37  O82       -5.5180   -3.9540    4.5380 O.2     0  LIG0       -0.2501
     38 C105       -5.5550   -1.9550    5.7830 C.3     0  LIG0        0.1096
     39 C113       -5.0910   -1.7760    7.1620 C.3     0  LIG0        0.0116
     40 C121       -3.8610   -0.9660    7.1190 C.3     0  LIG0        0.0006
     41 C125       -3.4640   -0.4730    8.4560 C.3     0  LIG0        0.0000
     42 C123       -2.3330    0.4890    8.3130 C.3     0  LIG0        0.0000
     43 C117       -1.0260   -0.1350    8.5850 C.3     0  LIG0        0.0000
     44 C109       -0.3390   -0.6190    7.3950 C.3     0  LIG0        0.0000
     45  C98        0.9090   -1.1780    7.7900 C.3     0  LIG0        0.0003
     46  C94        1.4100   -2.2960    7.4080 C.3     0  LIG0        0.0047
     47 C100        1.3020   -2.8790    6.1200 C.3     0  LIG0        0.0257
     48  C92        1.6550   -4.2920    6.2440 C.2     0  LIG0       -0.0307
     49  C96        2.2540   -5.0070    5.3410 C.2     0  LIG0       -0.0307
     50 C107        2.6700   -4.5330    4.0060 C.3     0  LIG0        0.0257
     51 C115        3.7630   -5.3920    3.4780 C.3     0  LIG0        0.0047
     52 C119        4.0810   -5.0350    2.0700 C.3     0  LIG0        0.0003
     53 C111        5.3690   -5.5920    1.6250 C.3     0  LIG0        0.0000
     54 C102        5.6820   -5.1870    0.2120 C.3     0  LIG0        0.0000
@<TRIPOS>BOND
     1    27    25    2
     2    30    29    1
     3    30    31    1
     4    54    53    1
     5    34    31    1
     6    29    28    1
     7    28    25    1
     8    25    26    1
     9    25    24    1
    10    31    33    1
    11    31    32    1
    12    53    52    1
    13    52    51    1
    14    24    23    1
    15    23    22    1
    16    51    50    1
    17    50    49    1
    18    22    21    1
    19    22    35    1
    20    37    36    2
    21    21    20    1
    22    36    35    1
    23    36    38    1
    24    49    48    2
    25    38    39    1
    26    20    18    1
    27    47    48    1
    28    47    46    1
    29    18    19    2
    30    18    17    1
    31    40    39    1
    32    40    41    1
    33    44    45    1
    34    44    43    1
    35    46    45    1
    36    17    16    1
    37    42    41    1
    38    42    43    1
    39    15    16    1
    40    15    14    1
    41    13    14    1
    42    13    12    1
    43    12    11    1
    44    11    10    1
    45    10     9    2
    46     9     8    1
    47     2     1    1
    48     2     3    1
    49     4     3    1
    50     4     5    1
    51     7     8    1
    52     7     6    2
    53     6     5    1
