@<TRIPOS>MOLECULE
/Users/xuhangdai/Desktop/Projects/OptimalTransport/extra_bio_ligands_boltz_af3/boltz_results_1ln1_DLP/1ln1_DLP_model_37_chainB.pdb
 54 53 0 0 0
SMALL
GASTEIGER

@<TRIPOS>ATOM
      1 C101       10.0340    5.2630   -2.1210 C.3     0  LIG0        0.0000
      2 C110        9.2450    6.1330   -1.2040 C.3     0  LIG0        0.0000
      3 C118        9.6290    5.9580    0.1760 C.3     0  LIG0        0.0003
      4 C114        9.3250    7.1200    1.0290 C.3     0  LIG0        0.0047
      5 C106        9.2170    6.6730    2.4090 C.3     0  LIG0        0.0257
      6  C95        9.7350    7.6370    3.3760 C.2     0  LIG0       -0.0307
      7  C91       10.1050    7.2490    4.5740 C.2     0  LIG0       -0.0307
      8  C99       10.2550    5.8630    4.8700 C.3     0  LIG0        0.0257
      9  C93       10.5750    5.6000    6.2230 C.3     0  LIG0        0.0047
     10  C97       11.0400    4.3920    6.4550 C.3     0  LIG0        0.0003
     11 C108       10.9600    3.5770    7.5560 C.3     0  LIG0        0.0000
     12 C116       11.2820    2.2040    7.1510 C.3     0  LIG0        0.0000
     13 C122       10.1410    1.4960    6.5450 C.3     0  LIG0        0.0000
     14 C124       10.0810    1.6580    5.0860 C.3     0  LIG0        0.0000
     15 C120       10.5750    0.5120    4.3590 C.3     0  LIG0        0.0006
     16 C112       10.2530    0.6590    2.9560 C.3     0  LIG0        0.0116
     17 C104        9.8060   -0.6280    2.4030 C.3     0  LIG0        0.1096
     18  C89        8.4920   -0.4710    1.7440 C.2     0  LIG0        0.3171
     19  O81        8.4050   -0.1160    0.6230 O.2     0  LIG0       -0.2501
     20  O85        7.4280   -0.7820    2.4860 O.3     0  LIG0       -0.4444
     21 C126        6.1490   -0.7820    1.8780 C.3     0  LIG0        0.2543
     22 C132        5.1210   -0.5240    2.9320 C.3     0  LIG0        0.2420
     23 C127        3.7340   -0.5680    2.3470 C.3     0  LIG0        0.1964
     24  O88        3.1880   -1.7710    2.6890 O.3     0  LIG0       -0.3101
     25 P134        1.6370   -1.9600    2.6900 P.3     0  LIG0        0.2140
     26  O83        1.0700   -1.4530    1.4430 O.2     0  LIG0       -0.5172
     27  O84        1.3600   -3.3560    2.9840 O.3     0  LIG0       -0.4373
     28  O87        1.0670   -1.0910    3.8680 O.3     0  LIG0       -0.3163
     29 C103        1.5880   -1.1920    5.1260 C.3     0  LIG0        0.1271
     30 C131        0.6210   -0.6560    6.1040 C.3     0  LIG0       -0.0402
     31 N133        0.9740    0.6270    6.7010 N.4     0  LIG0        0.3874
     32 C128        2.2330    0.5200    7.4450 C.3     0  LIG0       -0.0959
     33 C129        1.1390    1.6630    5.6500 C.3     0  LIG0       -0.0959
     34 C130       -0.0680    1.0470    7.5870 C.3     0  LIG0       -0.0959
     35  O86        5.3010    0.7430    3.5080 O.3     0  LIG0       -0.4457
     36  C90        5.5090    0.8130    4.8570 C.2     0  LIG0        0.3171
     37  O82        5.6840   -0.1790    5.4800 O.2     0  LIG0       -0.2501
     38 C105        5.4980    2.1640    5.5200 C.3     0  LIG0        0.1096
     39 C113        6.3000    3.1640    4.7980 C.3     0  LIG0        0.0116
     40 C121        5.4810    3.7030    3.7010 C.3     0  LIG0        0.0006
     41 C125        6.1430    4.7520    2.9220 C.3     0  LIG0        0.0000
     42 C123        5.2140    5.2710    1.8840 C.3     0  LIG0        0.0000
     43 C117        5.5980    4.9390    0.5230 C.3     0  LIG0        0.0000
     44 C109        4.8970    3.8160   -0.0290 C.3     0  LIG0        0.0000
     45  C98        5.5720    3.4400   -1.1850 C.3     0  LIG0        0.0003
     46  C94        5.8500    2.3350   -1.6230 C.3     0  LIG0        0.0047
     47 C100        5.2470    1.1140   -1.4110 C.3     0  LIG0        0.0257
     48  C92        5.9070    0.1960   -2.2960 C.2     0  LIG0       -0.0307
     49  C96        5.5280   -0.9420   -2.6720 C.2     0  LIG0       -0.0307
     50 C107        4.3790   -1.6860   -2.2330 C.3     0  LIG0        0.0257
     51 C115        4.1630   -2.8320   -3.1300 C.3     0  LIG0        0.0047
     52 C119        2.7240   -2.9960   -3.4460 C.3     0  LIG0        0.0003
     53 C111        2.5200   -3.7520   -4.6760 C.3     0  LIG0        0.0000
     54 C102        1.0740   -3.8020   -5.0440 C.3     0  LIG0        0.0000
@<TRIPOS>BOND
     1    54    53    1
     2    53    52    1
     3    52    51    1
     4    51    50    1
     5    49    48    2
     6    49    50    1
     7    48    47    1
     8     1     2    1
     9    46    47    1
    10    46    45    1
    11     2     3    1
    12    45    44    1
    13    44    43    1
    14     3     4    1
    15    43    42    1
    16    19    18    2
    17     4     5    1
    18    26    25    2
    19    18    17    1
    20    18    20    1
    21    21    20    1
    22    21    22    1
    23    42    41    1
    24    23    24    1
    25    23    22    1
    26    17    16    1
    27     5     6    1
    28    24    25    1
    29    25    27    1
    30    25    28    1
    31    41    40    1
    32    22    35    1
    33    16    15    1
    34     6     7    2
    35    35    36    1
    36    40    39    1
    37    28    29    1
    38    15    14    1
    39     7     8    1
    40    39    38    1
    41    36    37    2
    42    36    38    1
    43     8     9    1
    44    14    13    1
    45    29    30    1
    46    33    31    1
    47    30    31    1
    48     9    10    1
    49    10    11    1
    50    13    12    1
    51    31    32    1
    52    31    34    1
    53    12    11    1
