@<TRIPOS>MOLECULE
/Users/xuhangdai/Desktop/Projects/OptimalTransport/extra_bio_ligands_boltz_af3/boltz_results_1ln1_DLP/1ln1_DLP_model_0_chainB.pdb
 54 53 0 0 0
SMALL
GASTEIGER

@<TRIPOS>ATOM
      1 C101        5.8090    5.9950    7.5950 C.3     0  LIG0        0.0000
      2 C110        5.4210    6.2920    6.1750 C.3     0  LIG0        0.0000
      3 C118        5.4740    7.7220    5.8830 C.3     0  LIG0        0.0003
      4 C114        5.0770    8.0510    4.5100 C.3     0  LIG0        0.0047
      5 C106        4.6540    9.4510    4.4060 C.3     0  LIG0        0.0257
      6  C95        4.1920    9.7720    3.0360 C.2     0  LIG0       -0.0304
      7  C91        3.1360   10.5270    2.8460 C.2     0  LIG0       -0.0260
      8  C99        2.2620   10.9530    3.9230 C.3     0  LIG0        0.0513
      9  C93        0.9340   11.1250    3.4340 C.2     0  LIG0       -0.0260
     10  C97        0.0060   11.5700    4.3480 C.2     0  LIG0       -0.0304
     11 C108       -1.3590   11.4830    3.9840 C.3     0  LIG0        0.0257
     12 C116       -2.1410   11.2630    5.2130 C.3     0  LIG0        0.0047
     13 C122       -2.7570    9.9230    5.2430 C.3     0  LIG0        0.0003
     14 C124       -1.8040    8.8500    5.6350 C.3     0  LIG0        0.0000
     15 C120       -1.6900    8.7230    7.0920 C.3     0  LIG0        0.0006
     16 C112       -1.0020    7.4800    7.4240 C.3     0  LIG0        0.0116
     17 C104       -1.9830    6.3620    7.5800 C.3     0  LIG0        0.1096
     18  C89       -1.4280    5.1100    7.0060 C.2     0  LIG0        0.3171
     19  O81       -0.3600    4.7090    7.3060 O.2     0  LIG0       -0.2501
     20  O85       -2.2260    4.4630    6.1410 O.3     0  LIG0       -0.4444
     21 C126       -1.7270    3.3310    5.4390 C.3     0  LIG0        0.2543
     22 C132       -2.2470    3.3980    4.0290 C.3     0  LIG0        0.2420
     23 C127       -2.0120    2.0890    3.2960 C.3     0  LIG0        0.1964
     24  O88       -3.2350    1.4400    3.2280 O.3     0  LIG0       -0.3101
     25 P134       -3.4650    0.2880    2.1910 P.3     0  LIG0        0.2140
     26  O83       -2.3560   -0.6650    2.2470 O.2     0  LIG0       -0.5172
     27  O84       -4.8010   -0.2640    2.4280 O.3     0  LIG0       -0.4373
     28  O87       -3.4700    0.9440    0.7550 O.3     0  LIG0       -0.3163
     29 C103       -4.3460    1.9570    0.4690 C.3     0  LIG0        0.1271
     30 C131       -4.4980    2.0840   -0.9990 C.3     0  LIG0       -0.0402
     31 N133       -3.9190    3.2970   -1.5840 N.4     0  LIG0        0.3874
     32 C128       -4.4850    4.4970   -0.9580 C.3     0  LIG0       -0.0959
     33 C129       -2.4560    3.3090   -1.3790 C.3     0  LIG0       -0.0959
     34 C130       -4.1890    3.3240   -2.9940 C.3     0  LIG0       -0.0959
     35  O86       -1.6190    4.4320    3.3200 O.3     0  LIG0       -0.4457
     36  C90       -2.4180    5.4170    2.7960 C.2     0  LIG0        0.3171
     37  O82       -3.5970    5.2680    2.7540 O.2     0  LIG0       -0.2501
     38 C105       -1.7670    6.6820    2.3040 C.3     0  LIG0        0.1096
     39 C113       -0.5300    6.4650    1.5290 C.3     0  LIG0        0.0116
     40 C121        0.6100    6.2930    2.4680 C.3     0  LIG0        0.0006
     41 C125        1.9250    6.2160    1.7410 C.3     0  LIG0        0.0000
     42 C123        3.0040    5.6910    2.6520 C.3     0  LIG0        0.0000
     43 C117        3.2800    4.2450    2.4390 C.3     0  LIG0        0.0000
     44 C109        3.8630    3.5960    3.6290 C.3     0  LIG0        0.0000
     45  C98        3.0490    2.5140    3.9990 C.3     0  LIG0        0.0003
     46  C94        2.6350    2.4290    5.2860 C.3     0  LIG0        0.0047
     47 C100        1.8920    1.2700    5.5860 C.3     0  LIG0        0.0257
     48  C92        1.4660    1.2730    6.9890 C.2     0  LIG0       -0.0307
     49  C96        0.7640    0.2960    7.4780 C.2     0  LIG0       -0.0307
     50 C107        0.2600   -0.8350    6.6480 C.3     0  LIG0        0.0257
     51 C115       -0.0030   -2.0220    7.4970 C.3     0  LIG0        0.0047
     52 C119       -0.4740   -3.1820    6.6570 C.3     0  LIG0        0.0003
     53 C111       -0.1300   -4.4730    7.2640 C.3     0  LIG0        0.0000
     54 C102       -0.5940   -5.6220    6.4060 C.3     0  LIG0        0.0000
@<TRIPOS>BOND
     1    34    31    1
     2    31    33    1
     3    31    30    1
     4    31    32    1
     5    30    29    1
     6    29    28    1
     7    28    25    1
     8    39    38    1
     9    39    40    1
    10    41    40    1
    11    41    42    1
    12    25    26    2
    13    25    27    1
    14    25    24    1
    15    38    36    1
    16    43    42    1
    17    43    44    1
    18    37    36    2
    19    36    35    1
    20     7     6    2
    21     7     8    1
    22     6     5    1
    23    24    23    1
    24    23    22    1
    25    35    22    1
    26     9     8    1
    27     9    10    2
    28    44    45    1
    29    11    10    1
    30    11    12    1
    31    45    46    1
    32    22    21    1
    33     5     4    1
    34     4     3    1
    35    12    13    1
    36    13    14    1
    37    46    47    1
    38    21    20    1
    39    47    48    1
    40    14    15    1
    41     3     2    1
    42    20    18    1
    43     2     1    1
    44    54    53    1
    45    50    49    1
    46    50    51    1
    47    52    53    1
    48    52    51    1
    49    48    49    2
    50    18    19    2
    51    18    17    1
    52    15    16    1
    53    16    17    1
