@<TRIPOS>MOLECULE
/Users/xuhangdai/Desktop/Projects/OptimalTransport/extra_bio_ligands_boltz_af3/boltz_results_1ln1_DLP/1ln1_DLP_model_2_chainB.pdb
 54 53 0 0 0
SMALL
GASTEIGER

@<TRIPOS>ATOM
      1 C101        8.7680    0.5900    5.7110 C.3     0  LIG0        0.0000
      2 C110        9.4940    1.7600    5.1540 C.3     0  LIG0        0.0000
      3 C118        9.0050    2.1160    3.8130 C.3     0  LIG0        0.0003
      4 C114        9.8080    3.2040    3.2280 C.3     0  LIG0        0.0047
      5 C106        8.9310    4.2650    2.7560 C.3     0  LIG0        0.0257
      6  C95        9.6830    5.2560    1.9880 C.2     0  LIG0       -0.0307
      7  C91        9.2520    6.4880    1.9420 C.2     0  LIG0       -0.0307
      8  C99        8.2100    6.9640    2.8450 C.3     0  LIG0        0.0257
      9  C93        7.8020    8.2860    2.4510 C.3     0  LIG0        0.0047
     10  C97        7.1330    9.0430    3.3830 C.3     0  LIG0        0.0003
     11 C108        5.7020    9.1450    3.2910 C.3     0  LIG0        0.0000
     12 C116        5.1850    9.4830    4.6260 C.3     0  LIG0        0.0000
     13 C122        3.8650    8.8860    4.8350 C.3     0  LIG0        0.0000
     14 C124        3.9730    7.4390    5.1430 C.3     0  LIG0        0.0000
     15 C120        4.0480    7.1990    6.5780 C.3     0  LIG0        0.0006
     16 C112        4.0510    5.7560    6.8220 C.3     0  LIG0        0.0116
     17 C104        2.6850    5.2730    7.1430 C.3     0  LIG0        0.1096
     18  C89        2.4160    4.0230    6.4070 C.2     0  LIG0        0.3171
     19  O81        3.1060    3.0660    6.5270 O.2     0  LIG0       -0.2501
     20  O85        1.3420    4.0410    5.6260 O.3     0  LIG0       -0.4444
     21 C126        1.0510    2.9190    4.8260 C.3     0  LIG0        0.2543
     22 C132        0.4260    3.3960    3.5490 C.3     0  LIG0        0.2420
     23 C127       -0.2180    2.2550    2.8220 C.3     0  LIG0        0.1964
     24  O88       -1.5660    2.4940    2.8650 O.3     0  LIG0       -0.3101
     25 P134       -2.5570    1.7370    1.9440 P.3     0  LIG0        0.2140
     26  O83       -2.0770    0.3860    1.6680 O.2     0  LIG0       -0.5172
     27  O84       -3.8770    1.8280    2.5600 O.3     0  LIG0       -0.4373
     28  O87       -2.5970    2.5160    0.5720 O.3     0  LIG0       -0.3163
     29 C103       -2.4620    3.8650    0.5270 C.3     0  LIG0        0.1271
     30 C131       -2.8040    4.3510   -0.8400 C.3     0  LIG0       -0.0402
     31 N133       -1.7500    5.1160   -1.5020 N.4     0  LIG0        0.3874
     32 C128       -1.5110    6.3810   -0.7970 C.3     0  LIG0       -0.0959
     33 C129       -0.4920    4.3460   -1.5220 C.3     0  LIG0       -0.0959
     34 C130       -2.1490    5.3930   -2.8580 C.3     0  LIG0       -0.0959
     35  O86        1.3670    3.9880    2.6880 O.3     0  LIG0       -0.4457
     36  C90        1.1680    5.3010    2.3470 C.2     0  LIG0        0.3171
     37  O82        0.3620    5.9580    2.9210 O.2     0  LIG0       -0.2501
     38 C105        1.9910    5.8650    1.2170 C.3     0  LIG0        0.1096
     39 C113        3.4390    5.8370    1.5110 C.3     0  LIG0        0.0116
     40 C121        3.9240    4.4800    1.2310 C.3     0  LIG0        0.0006
     41 C125        5.3700    4.4280    0.8970 C.3     0  LIG0        0.0000
     42 C123        6.0040    3.1790    1.4480 C.3     0  LIG0        0.0003
     43 C117        5.4240    1.9320    0.8960 C.3     0  LIG0        0.0047
     44 C109        5.6590    0.7790    1.8040 C.3     0  LIG0        0.0257
     45  C98        4.4100    0.2180    2.1970 C.2     0  LIG0       -0.0304
     46  C94        4.2340   -0.0450    3.5210 C.2     0  LIG0       -0.0260
     47 C100        2.9590   -0.5490    3.9100 C.3     0  LIG0        0.0513
     48  C92        2.9190   -0.7150    5.3670 C.2     0  LIG0       -0.0260
     49  C96        1.9220   -1.2770    5.9940 C.2     0  LIG0       -0.0304
     50 C107        0.6690   -1.7190    5.3290 C.3     0  LIG0        0.0257
     51 C115        0.0840   -2.8790    6.0770 C.3     0  LIG0        0.0047
     52 C119       -1.2420   -3.2620    5.5030 C.3     0  LIG0        0.0003
     53 C111       -1.6780   -4.5820    6.0050 C.3     0  LIG0        0.0000
     54 C102       -2.9660   -5.0160    5.3640 C.3     0  LIG0        0.0000
@<TRIPOS>BOND
     1    34    31    1
     2    33    31    1
     3    31    30    1
     4    31    32    1
     5    30    29    1
     6    29    28    1
     7    28    25    1
     8    43    42    1
     9    43    44    1
    10    41    40    1
    11    41    42    1
    12    38    39    1
    13    38    36    1
    14    40    39    1
    15    26    25    2
    16    44    45    1
    17     7     6    2
    18     7     8    1
    19    25    27    1
    20    25    24    1
    21     6     5    1
    22    45    46    2
    23    36    35    1
    24    36    37    2
    25     9     8    1
    26     9    10    1
    27    35    22    1
    28     5     4    1
    29    23    24    1
    30    23    22    1
    31     4     3    1
    32    11    10    1
    33    11    12    1
    34    46    47    1
    35    22    21    1
    36     3     2    1
    37    47    48    1
    38    12    13    1
    39    21    20    1
    40    13    14    1
    41    14    15    1
    42     2     1    1
    43    50    49    1
    44    50    51    1
    45    54    53    1
    46    48    49    2
    47    52    53    1
    48    52    51    1
    49    20    18    1
    50    18    19    2
    51    18    17    1
    52    15    16    1
    53    16    17    1
