@<TRIPOS>MOLECULE
/Users/xuhangdai/Desktop/Projects/OptimalTransport/extra_bio_ligands_boltz_af3/boltz_results_1ln1_DLP/1ln1_DLP_model_22_chainB.pdb
 54 53 0 0 0
SMALL
GASTEIGER

@<TRIPOS>ATOM
      1 C101       -0.2450  -10.6590   -5.7200 C.3     0  LIG0        0.0000
      2 C110       -0.6390  -10.4750   -7.1280 C.3     0  LIG0        0.0000
      3 C118       -0.8880   -9.0730   -7.4810 C.3     0  LIG0        0.0003
      4 C114       -1.3550   -8.9280   -8.8660 C.3     0  LIG0        0.0047
      5 C106       -1.2020   -7.5630   -9.3400 C.3     0  LIG0        0.0257
      6  C95       -0.7850   -7.5400  -10.6850 C.2     0  LIG0       -0.0307
      7  C91       -0.0370   -6.7680  -11.2980 C.2     0  LIG0       -0.0307
      8  C99        0.5960   -5.5790  -11.1810 C.3     0  LIG0        0.0257
      9  C93        1.8090   -5.5840  -11.6260 C.3     0  LIG0        0.0047
     10  C97        2.8460   -5.0460  -11.7680 C.3     0  LIG0        0.0003
     11 C108        3.6900   -4.0700  -11.7210 C.3     0  LIG0        0.0000
     12 C116        4.9580   -4.4740  -11.1140 C.3     0  LIG0        0.0000
     13 C122        5.0820   -4.0270   -9.7340 C.3     0  LIG0        0.0000
     14 C124        4.5120   -4.9640   -8.7480 C.3     0  LIG0        0.0000
     15 C120        5.4370   -5.9720   -8.2960 C.3     0  LIG0        0.0006
     16 C112        5.0270   -6.5050   -7.0080 C.3     0  LIG0        0.0116
     17 C104        5.5950   -5.7030   -5.9160 C.3     0  LIG0        0.1096
     18  C89        4.6070   -5.4890   -4.8550 C.2     0  LIG0        0.3171
     19  O81        4.1930   -6.3810   -4.1990 O.2     0  LIG0       -0.2501
     20  O85        4.2310   -4.2320   -4.6790 O.3     0  LIG0       -0.4444
     21 C126        3.3890   -3.8850   -3.6250 C.3     0  LIG0        0.2543
     22 C132        2.8860   -2.4960   -3.8610 C.3     0  LIG0        0.2420
     23 C127        2.1040   -2.0100   -2.6860 C.3     0  LIG0        0.1964
     24  O88        2.7650   -0.9330   -2.1800 O.3     0  LIG0       -0.3101
     25 P134        2.0270    0.1230   -1.3110 P.3     0  LIG0        0.2140
     26  O83        1.0580   -0.5280   -0.4360 O.3     0  LIG0       -0.4373
     27  O84        3.0440    0.9450   -0.6600 O.2     0  LIG0       -0.5172
     28  O87        1.2320    1.0390   -2.3010 O.3     0  LIG0       -0.3163
     29 C103        1.8510    1.5960   -3.3620 C.3     0  LIG0        0.1271
     30 C131        1.1400    2.8250   -3.7660 C.3     0  LIG0       -0.0402
     31 N133        0.5410    2.7730   -5.0880 N.4     0  LIG0        0.3874
     32 C128       -0.4040    1.6340   -5.1900 C.3     0  LIG0       -0.0959
     33 C129        1.5900    2.6100   -6.1170 C.3     0  LIG0       -0.0959
     34 C130       -0.1780    3.9960   -5.3240 C.3     0  LIG0       -0.0959
     35  O86        2.0570   -2.4170   -4.9820 O.3     0  LIG0       -0.4457
     36  C90        2.4650   -1.7070   -6.0730 C.2     0  LIG0        0.3171
     37  O82        3.5810   -1.3100   -6.1510 O.2     0  LIG0       -0.2501
     38 C105        1.4470   -1.4460   -7.1550 C.3     0  LIG0        0.1096
     39 C113        0.9010   -2.6740   -7.7540 C.3     0  LIG0        0.0116
     40 C121        0.0330   -3.3500   -6.7740 C.3     0  LIG0        0.0006
     41 C125       -1.0460   -4.1900   -7.3450 C.3     0  LIG0        0.0000
     42 C123       -1.3050   -5.4070   -6.5080 C.3     0  LIG0        0.0003
     43 C117       -1.9100   -5.1610   -5.1970 C.3     0  LIG0        0.0047
     44 C109       -1.7120   -6.2940   -4.2610 C.3     0  LIG0        0.0257
     45  C98       -0.9010   -5.9600   -3.2780 C.2     0  LIG0       -0.0304
     46  C94        0.0530   -6.5020   -2.6580 C.2     0  LIG0       -0.0260
     47 C100        0.6010   -5.9950   -1.5350 C.3     0  LIG0        0.0513
     48  C92        1.6240   -6.8030   -0.9740 C.2     0  LIG0       -0.0260
     49  C96        2.1570   -6.5900    0.1620 C.2     0  LIG0       -0.0304
     50 C107        1.9840   -5.4670    1.0490 C.3     0  LIG0        0.0257
     51 C115        2.3780   -5.7780    2.4310 C.3     0  LIG0        0.0047
     52 C119        2.2640   -4.5870    3.2900 C.3     0  LIG0        0.0003
     53 C111        2.0460   -4.9130    4.6950 C.3     0  LIG0        0.0000
     54 C102        2.0270   -3.6970    5.5650 C.3     0  LIG0        0.0000
@<TRIPOS>BOND
     1    10    11    1
     2    10     9    1
     3    11    12    1
     4     9     8    1
     5     7     8    1
     6     7     6    2
     7    12    13    1
     8     6     5    1
     9    13    14    1
    10     5     4    1
    11     4     3    1
    12    14    15    1
    13    15    16    1
    14    39    38    1
    15    39    40    1
    16     3     2    1
    17    41    40    1
    18    41    42    1
    19    38    36    1
    20     2     1    1
    21    16    17    1
    22    42    43    1
    23    37    36    2
    24    33    31    1
    25    36    35    1
    26    17    18    1
    27    34    31    1
    28    43    44    1
    29    32    31    1
    30    31    30    1
    31    35    22    1
    32    18    20    1
    33    18    19    2
    34    20    21    1
    35    44    45    1
    36    22    21    1
    37    22    23    1
    38    30    29    1
    39    29    28    1
    40    45    46    2
    41    23    24    1
    42    46    47    1
    43    28    25    1
    44    24    25    1
    45    47    48    1
    46    25    27    2
    47    25    26    1
    48    48    49    2
    49    49    50    1
    50    50    51    1
    51    51    52    1
    52    52    53    1
    53    53    54    1
