@<TRIPOS>MOLECULE
/Users/xuhangdai/Desktop/Projects/OptimalTransport/extra_bio_ligands_boltz_af3/boltz_results_1ln1_DLP/1ln1_DLP_model_29_chainB.pdb
 54 53 0 0 0
SMALL
GASTEIGER

@<TRIPOS>ATOM
      1 C101       -9.7820   -4.0310   -6.9350 C.3     0  LIG0        0.0000
      2 C110       -8.5820   -4.8960   -7.0430 C.3     0  LIG0        0.0000
      3 C118       -7.9140   -4.7870   -8.3380 C.3     0  LIG0        0.0000
      4 C114       -7.1780   -6.0080   -8.6500 C.3     0  LIG0        0.0000
      5 C106       -6.0840   -5.8420   -9.6250 C.3     0  LIG0        0.0000
      6  C95       -5.9900   -7.0340  -10.4870 C.3     0  LIG0        0.0003
      7  C91       -5.4690   -8.1820  -10.1170 C.3     0  LIG0        0.0047
      8  C99       -4.4730   -8.3750   -9.0880 C.3     0  LIG0        0.0257
      9  C93       -4.4210   -9.7490   -8.7010 C.2     0  LIG0       -0.0307
     10  C97       -3.4340  -10.1220   -7.8150 C.2     0  LIG0       -0.0307
     11 C108       -3.4070  -11.4070   -7.2570 C.3     0  LIG0        0.0257
     12 C116       -3.8160  -11.4660   -5.8380 C.3     0  LIG0        0.0047
     13 C122       -3.5560  -10.2160   -5.1150 C.3     0  LIG0        0.0003
     14 C124       -4.1900  -10.2080   -3.7810 C.3     0  LIG0        0.0000
     15 C120       -5.6290  -10.0690   -3.8540 C.3     0  LIG0        0.0006
     16 C112       -6.0940   -8.8190   -3.2510 C.3     0  LIG0        0.0116
     17 C104       -5.5480   -8.5760   -1.9090 C.3     0  LIG0        0.1096
     18  C89       -5.2830   -7.1280   -1.7510 C.2     0  LIG0        0.3171
     19  O81       -6.1430   -6.3220   -1.8570 O.2     0  LIG0       -0.2501
     20  O85       -4.0190   -6.8070   -1.4570 O.3     0  LIG0       -0.4444
     21 C126       -3.6790   -5.4490   -1.2870 C.3     0  LIG0        0.2543
     22 C132       -2.2160   -5.2970   -1.5890 C.3     0  LIG0        0.2420
     23 C127       -1.7280   -3.9130   -1.2500 C.3     0  LIG0        0.1964
     24  O88       -0.8970   -4.0450   -0.1550 O.3     0  LIG0       -0.3101
     25 P134        0.1900   -2.9660    0.1360 P.3     0  LIG0        0.2140
     26  O83       -0.3780   -1.6180    0.0130 O.2     0  LIG0       -0.5172
     27  O84        0.8030   -3.2850    1.4240 O.3     0  LIG0       -0.4373
     28  O87        1.2890   -3.1210   -0.9760 O.3     0  LIG0       -0.3163
     29 C103        1.8840   -4.3320   -1.1530 C.3     0  LIG0        0.1271
     30 C131        3.2210   -4.1330   -1.7700 C.3     0  LIG0       -0.0402
     31 N133        3.3280   -4.5810   -3.1500 N.4     0  LIG0        0.3874
     32 C128        3.0780   -6.0260   -3.2390 C.3     0  LIG0       -0.0959
     33 C129        2.3310   -3.8830   -4.0110 C.3     0  LIG0       -0.0959
     34 C130        4.6430   -4.2940   -3.6540 C.3     0  LIG0       -0.0959
     35  O86       -1.9520   -5.5340   -2.9440 O.3     0  LIG0       -0.4457
     36  C90       -1.1550   -6.6060   -3.2470 C.2     0  LIG0        0.3171
     37  O82       -0.8490   -7.3860   -2.3990 O.2     0  LIG0       -0.2501
     38 C105       -0.6780   -6.7590   -4.6610 C.3     0  LIG0        0.1096
     39 C113       -1.7770   -6.7260   -5.6370 C.3     0  LIG0        0.0116
     40 C121       -2.1210   -5.3250   -5.9210 C.3     0  LIG0        0.0006
     41 C125       -2.8280   -5.1390   -7.2120 C.3     0  LIG0        0.0000
     42 C123       -4.0920   -4.3490   -7.0470 C.3     0  LIG0        0.0003
     43 C117       -3.8820   -2.9540   -6.6080 C.3     0  LIG0        0.0047
     44 C109       -5.1410   -2.3440   -6.1220 C.3     0  LIG0        0.0257
     45  C98       -4.9600   -1.9410   -4.7660 C.2     0  LIG0       -0.0304
     46  C94       -5.7810   -2.4340   -3.8190 C.2     0  LIG0       -0.0260
     47 C100       -5.6080   -1.9220   -2.5230 C.3     0  LIG0        0.0513
     48  C92       -6.4970   -2.5740   -1.5720 C.2     0  LIG0       -0.0260
     49  C96       -6.5350   -2.2350   -0.3090 C.2     0  LIG0       -0.0304
     50 C107       -5.7080   -1.1610    0.3030 C.3     0  LIG0        0.0257
     51 C115       -6.0110   -1.0660    1.7620 C.3     0  LIG0        0.0047
     52 C119       -5.0920   -0.1290    2.4460 C.3     0  LIG0        0.0003
     53 C111       -5.7150    1.1680    2.7560 C.3     0  LIG0        0.0000
     54 C102       -4.8110    2.0650    3.5650 C.3     0  LIG0        0.0000
@<TRIPOS>BOND
     1     6     7    1
     2     6     5    1
     3     7     8    1
     4     5     4    1
     5     8     9    1
     6     9    10    2
     7     4     3    1
     8     3     2    1
     9    10    11    1
    10    11    12    1
    11    41    42    1
    12    41    40    1
    13    42    43    1
    14     2     1    1
    15    43    44    1
    16    44    45    1
    17    40    39    1
    18    12    13    1
    19    39    38    1
    20    13    14    1
    21    45    46    2
    22    38    36    1
    23    33    31    1
    24    15    14    1
    25    15    16    1
    26    46    47    1
    27    34    31    1
    28    16    17    1
    29    36    35    1
    30    36    37    2
    31    32    31    1
    32    31    30    1
    33    35    22    1
    34    47    48    1
    35    17    18    1
    36    19    18    2
    37    30    29    1
    38    18    20    1
    39    22    21    1
    40    22    23    1
    41    48    49    2
    42    20    21    1
    43    23    24    1
    44    29    28    1
    45    28    25    1
    46    49    50    1
    47    24    25    1
    48    26    25    2
    49    25    27    1
    50    50    51    1
    51    51    52    1
    52    52    53    1
    53    53    54    1
