@<TRIPOS>MOLECULE
/Users/xuhangdai/Desktop/Projects/OptimalTransport/extra_bio_ligands_boltz_af3/boltz_results_1ln1_DLP/1ln1_DLP_model_16_chainB.pdb
 54 53 0 0 0
SMALL
GASTEIGER

@<TRIPOS>ATOM
      1 C101        6.8270    9.1180    3.3060 C.3     0  LIG0        0.0000
      2 C110        7.4940    9.2640    1.9960 C.3     0  LIG0        0.0000
      3 C118        6.7850    8.5750    0.8960 C.3     0  LIG0        0.0003
      4 C114        7.5000    8.7240   -0.3990 C.3     0  LIG0        0.0047
      5 C106        6.5980    8.5070   -1.5490 C.3     0  LIG0        0.0257
      6  C95        7.2500    8.9070   -2.8040 C.2     0  LIG0       -0.0304
      7  C91        6.5980    9.2890   -3.8820 C.2     0  LIG0       -0.0260
      8  C99        5.1600    9.4240   -4.0380 C.3     0  LIG0        0.0513
      9  C93        4.7980   10.8040   -3.9360 C.2     0  LIG0       -0.0260
     10  C97        3.7130   11.3660   -4.4110 C.2     0  LIG0       -0.0304
     11 C108        2.5300   10.7410   -4.9430 C.3     0  LIG0        0.0257
     12 C116        1.3520   11.4760   -4.4650 C.3     0  LIG0        0.0047
     13 C122        0.5060   10.6450   -3.5990 C.3     0  LIG0        0.0003
     14 C124        0.3190   11.2050   -2.2440 C.3     0  LIG0        0.0000
     15 C120        1.3870   10.8250   -1.3010 C.3     0  LIG0        0.0006
     16 C112        1.0700   11.2070    0.0720 C.3     0  LIG0        0.0116
     17 C104       -0.2370   10.6820    0.5250 C.3     0  LIG0        0.1096
     18  C89       -0.1050    9.3550    1.1810 C.2     0  LIG0        0.3171
     19  O81        0.6310    9.1800    2.0890 O.2     0  LIG0       -0.2501
     20  O85       -0.8940    8.3900    0.7040 O.3     0  LIG0       -0.4444
     21 C126       -0.7980    7.0860    1.2330 C.3     0  LIG0        0.2543
     22 C132       -1.0390    6.1030    0.1290 C.3     0  LIG0        0.2420
     23 C127       -1.1710    4.6990    0.6740 C.3     0  LIG0        0.1964
     24  O88       -2.5150    4.3650    0.6430 O.3     0  LIG0       -0.3101
     25 P134       -2.9620    2.8750    0.7410 P.3     0  LIG0        0.2140
     26  O83       -2.1910    2.1850    1.7780 O.3     0  LIG0       -0.4373
     27  O84       -4.4140    2.8470    0.9070 O.2     0  LIG0       -0.5172
     28  O87       -2.6250    2.2040   -0.6410 O.3     0  LIG0       -0.3163
     29 C103       -3.0060    2.8020   -1.8040 C.3     0  LIG0        0.1271
     30 C131       -3.0640    1.7970   -2.8900 C.3     0  LIG0       -0.0402
     31 N133       -2.0960    1.9910   -3.9590 N.4     0  LIG0        0.3874
     32 C128       -2.3430    3.2540   -4.6530 C.3     0  LIG0       -0.0959
     33 C129       -0.7180    2.0250   -3.4150 C.3     0  LIG0       -0.0959
     34 C130       -2.1850    0.9060   -4.8950 C.3     0  LIG0       -0.0959
     35  O86        0.0130    6.1190   -0.8040 O.3     0  LIG0       -0.4457
     36  C90       -0.2990    6.3080   -2.1270 C.2     0  LIG0        0.3171
     37  O82       -1.4090    6.6050   -2.4280 O.2     0  LIG0       -0.2501
     38 C105        0.7670    6.1170   -3.1710 C.3     0  LIG0        0.1096
     39 C113        2.1220    6.5450   -2.7780 C.3     0  LIG0        0.0116
     40 C121        2.7140    5.5330   -1.8810 C.3     0  LIG0        0.0006
     41 C125        4.1950    5.6090   -1.7300 C.3     0  LIG0        0.0000
     42 C123        4.6110    5.6690   -0.2900 C.3     0  LIG0        0.0003
     43 C117        4.5460    4.3910    0.4620 C.3     0  LIG0        0.0047
     44 C109        3.8020    4.4120    1.7360 C.3     0  LIG0        0.0257
     45  C98        3.8330    5.6510    2.4110 C.2     0  LIG0       -0.0304
     46  C94        2.9590    6.0960    3.2600 C.2     0  LIG0       -0.0260
     47 C100        1.9040    5.3770    3.8790 C.3     0  LIG0        0.0513
     48  C92        1.3430    6.2000    4.9380 C.2     0  LIG0       -0.0260
     49  C96        0.3140    5.9500    5.6830 C.2     0  LIG0       -0.0304
     50 C107       -0.6400    4.8400    5.5650 C.3     0  LIG0        0.0257
     51 C115       -1.2750    4.5630    6.8880 C.3     0  LIG0        0.0047
     52 C119       -2.3820    3.5590    6.7910 C.3     0  LIG0        0.0003
     53 C111       -2.6520    2.8580    8.0660 C.3     0  LIG0        0.0000
     54 C102       -1.4650    2.0680    8.5410 C.3     0  LIG0        0.0000
@<TRIPOS>BOND
     1    11    12    1
     2    11    10    1
     3    34    31    1
     4    32    31    1
     5    12    13    1
     6    10     9    2
     7     8     9    1
     8     8     7    1
     9    31    33    1
    10    31    30    1
    11     7     6    2
    12    13    14    1
    13    38    39    1
    14    38    36    1
    15    30    29    1
    16     6     5    1
    17    39    40    1
    18    37    36    2
    19    14    15    1
    20    36    35    1
    21    40    41    1
    22    29    28    1
    23    41    42    1
    24     5     4    1
    25    15    16    1
    26    35    22    1
    27    28    25    1
    28     4     3    1
    29    42    43    1
    30    16    17    1
    31    22    23    1
    32    22    21    1
    33    43    44    1
    34    17    18    1
    35    24    23    1
    36    24    25    1
    37    20    18    1
    38    20    21    1
    39    25    27    2
    40    25    26    1
    41     3     2    1
    42    18    19    2
    43    44    45    1
    44     2     1    1
    45    45    46    2
    46    46    47    1
    47    47    48    1
    48    48    49    2
    49    50    49    1
    50    50    51    1
    51    52    51    1
    52    52    53    1
    53    53    54    1
