@<TRIPOS>MOLECULE
/Users/xuhangdai/Desktop/Projects/OptimalTransport/extra_bio_ligands_boltz_af3/boltz_results_1ln1_DLP/1ln1_DLP_model_39_chainB.pdb
 54 53 0 0 0
SMALL
GASTEIGER

@<TRIPOS>ATOM
      1 C101        1.9870    5.5540    8.1900 C.3     0  LIG0        0.0000
      2 C110        1.6990    6.9850    7.9030 C.3     0  LIG0        0.0000
      3 C118        1.5270    7.2470    6.4630 C.3     0  LIG0        0.0003
      4 C114        1.3370    8.6860    6.1810 C.3     0  LIG0        0.0047
      5 C106        0.2430    8.8970    5.2320 C.3     0  LIG0        0.0257
      6  C95       -0.0130   10.3340    5.0420 C.2     0  LIG0       -0.0304
      7  C91       -1.1690   10.8060    4.6450 C.2     0  LIG0       -0.0260
      8  C99       -2.3180   10.0310    4.2500 C.3     0  LIG0        0.0513
      9  C93       -3.4700   10.5550    4.8720 C.2     0  LIG0       -0.0260
     10  C97       -4.7240   10.4050    4.6130 C.2     0  LIG0       -0.0304
     11 C108       -5.4120    9.7260    3.5710 C.3     0  LIG0        0.0257
     12 C116       -6.2680    8.7070    4.1600 C.3     0  LIG0        0.0047
     13 C122       -5.6740    7.4180    3.9150 C.3     0  LIG0        0.0003
     14 C124       -5.8920    6.5190    5.0520 C.3     0  LIG0        0.0000
     15 C120       -4.6160    6.1100    5.6190 C.3     0  LIG0        0.0006
     16 C112       -4.8020    5.0210    6.5530 C.3     0  LIG0        0.0116
     17 C104       -5.2650    3.8090    5.8650 C.3     0  LIG0        0.1096
     18  C89       -4.1310    3.1080    5.2260 C.2     0  LIG0        0.3171
     19  O81       -3.1890    2.7390    5.8460 O.2     0  LIG0       -0.2501
     20  O85       -4.2630    2.9110    3.9230 O.3     0  LIG0       -0.4444
     21 C126       -3.3100    2.1370    3.2470 C.3     0  LIG0        0.2543
     22 C132       -3.4270    2.4470    1.7860 C.3     0  LIG0        0.2420
     23 C127       -2.5910    1.4900    0.9790 C.3     0  LIG0        0.1964
     24  O88       -3.4690    0.7890    0.1800 O.3     0  LIG0       -0.3101
     25 P134       -2.9580    0.0690   -1.1100 P.3     0  LIG0        0.2140
     26  O83       -1.6300   -0.5060   -0.8820 O.3     0  LIG0       -0.4373
     27  O84       -4.0030   -0.8670   -1.5310 O.2     0  LIG0       -0.5172
     28  O87       -2.8210    1.1800   -2.2080 O.3     0  LIG0       -0.3163
     29 C103       -3.8840    1.9890   -2.4620 C.3     0  LIG0        0.1271
     30 C131       -3.8000    2.4830   -3.8510 C.3     0  LIG0       -0.0402
     31 N133       -3.4030    3.8740   -3.9610 N.4     0  LIG0        0.3874
     32 C128       -4.3630    4.7350   -3.2540 C.3     0  LIG0       -0.0959
     33 C129       -2.0700    4.0740   -3.3650 C.3     0  LIG0       -0.0959
     34 C130       -3.3470    4.2530   -5.3400 C.3     0  LIG0       -0.0959
     35  O86       -2.9880    3.7500    1.5080 O.3     0  LIG0       -0.4457
     36  C90       -3.8940    4.6380    0.9890 C.2     0  LIG0        0.3171
     37  O82       -5.0460    4.3540    0.9330 O.2     0  LIG0       -0.2501
     38 C105       -3.3850    5.9680    0.4980 C.3     0  LIG0        0.1096
     39 C113       -2.5280    6.6400    1.4850 C.3     0  LIG0        0.0116
     40 C121       -1.1600    6.1220    1.3170 C.3     0  LIG0        0.0006
     41 C125       -0.1880    6.6880    2.2770 C.3     0  LIG0        0.0000
     42 C123        1.1730    6.1120    2.0130 C.3     0  LIG0        0.0000
     43 C117        1.7990    5.5100    3.1910 C.3     0  LIG0        0.0000
     44 C109        2.0980    4.0910    2.9940 C.3     0  LIG0        0.0000
     45  C98        1.6920    3.3900    4.1150 C.3     0  LIG0        0.0003
     46  C94        0.7270    2.5850    4.2550 C.3     0  LIG0        0.0047
     47 C100        0.7630    1.2290    4.0880 C.3     0  LIG0        0.0257
     48  C92       -0.0470    0.5720    5.0920 C.2     0  LIG0       -0.0307
     49  C96       -0.3500   -0.6840    5.0680 C.2     0  LIG0       -0.0307
     50 C107       -0.1410   -1.5840    3.9280 C.3     0  LIG0        0.0257
     51 C115       -0.1020   -2.9920    4.3630 C.3     0  LIG0        0.0047
     52 C119       -0.2860   -3.9100    3.2060 C.3     0  LIG0        0.0003
     53 C111        0.5370   -5.1180    3.3260 C.3     0  LIG0        0.0000
     54 C102        0.3240   -6.0540    2.1660 C.3     0  LIG0        0.0000
@<TRIPOS>BOND
     1    34    31    1
     2    31    30    1
     3    31    33    1
     4    31    32    1
     5    30    29    1
     6    29    28    1
     7    28    25    1
     8    27    25    2
     9    25    26    1
    10    25    24    1
    11    24    23    1
    12    38    36    1
    13    38    39    1
    14    37    36    2
    15    23    22    1
    16    36    35    1
    17    40    39    1
    18    40    41    1
    19    35    22    1
    20    22    21    1
    21    42    41    1
    22    42    43    1
    23    54    53    1
    24    44    43    1
    25    44    45    1
    26    52    53    1
    27    52    51    1
    28    21    20    1
    29    11    12    1
    30    11    10    1
    31    13    12    1
    32    13    14    1
    33    20    18    1
    34    50    51    1
    35    50    49    1
    36    47    46    1
    37    47    48    1
    38    45    46    1
    39     8     7    1
    40     8     9    1
    41    10     9    2
    42     7     6    2
    43     6     5    1
    44    14    15    1
    45    49    48    2
    46    18    19    2
    47    18    17    1
    48     5     4    1
    49    15    16    1
    50    17    16    1
    51     4     3    1
    52     3     2    1
    53     2     1    1
