@<TRIPOS>MOLECULE
/Users/xuhangdai/Desktop/Projects/OptimalTransport/extra_bio_ligands_boltz_af3/boltz_results_1ln1_DLP/1ln1_DLP_model_21_chainB.pdb
 54 53 0 0 0
SMALL
GASTEIGER

@<TRIPOS>ATOM
      1 C101       -8.6220   -8.1940   -1.2850 C.3     0  LIG0        0.0000
      2 C110       -9.5970   -7.7820   -0.2510 C.3     0  LIG0        0.0000
      3 C118       -9.0190   -6.7820    0.6750 C.3     0  LIG0        0.0000
      4 C114       -9.9700   -6.4940    1.7710 C.3     0  LIG0        0.0000
      5 C106       -9.7520   -5.1270    2.2540 C.3     0  LIG0        0.0000
      6  C95      -10.7480   -4.7860    3.2920 C.3     0  LIG0        0.0000
      7  C91      -11.3020   -3.6030    3.2750 C.3     0  LIG0        0.0000
      8  C99      -11.2650   -2.8280    2.0610 C.3     0  LIG0        0.0000
      9  C93      -11.4860   -1.4490    2.3570 C.3     0  LIG0        0.0000
     10  C97      -11.8170   -0.7200    1.2530 C.3     0  LIG0        0.0000
     11 C108      -11.7080    0.6940    1.3020 C.3     0  LIG0        0.0000
     12 C116      -11.7700    1.2290   -0.0650 C.3     0  LIG0        0.0000
     13 C122      -10.4610    1.0580   -0.7210 C.3     0  LIG0        0.0000
     14 C124      -10.6250    0.2200   -1.9060 C.3     0  LIG0        0.0000
     15 C120       -9.3440    0.0090   -2.5640 C.3     0  LIG0        0.0006
     16 C112       -9.4130   -1.2090   -3.3290 C.3     0  LIG0        0.0116
     17 C104       -8.4090   -1.1720   -4.3980 C.3     0  LIG0        0.1096
     18  C89       -7.1230   -1.6810   -3.8920 C.2     0  LIG0        0.3171
     19  O81       -6.8710   -2.8400   -3.8800 O.2     0  LIG0       -0.2501
     20  O85       -6.2610   -0.7590   -3.4880 O.3     0  LIG0       -0.4444
     21 C126       -4.9690   -1.1740   -3.1120 C.3     0  LIG0        0.2543
     22 C132       -4.4400   -0.2160   -2.0860 C.3     0  LIG0        0.2420
     23 C127       -2.9790   -0.4590   -1.8560 C.3     0  LIG0        0.1964
     24  O88       -2.2960    0.4920   -2.5600 O.3     0  LIG0       -0.3101
     25 P134       -0.8310    0.8530   -2.1490 P.3     0  LIG0        0.2140
     26  O83       -0.0180   -0.3610   -2.0850 O.3     0  LIG0       -0.4373
     27  O84       -0.3640    1.8910   -3.0630 O.2     0  LIG0       -0.5172
     28  O87       -0.8800    1.4690   -0.7010 O.3     0  LIG0       -0.3163
     29 C103       -1.6960    2.5250   -0.4410 C.3     0  LIG0        0.1271
     30 C131       -1.1820    3.2620    0.7390 C.3     0  LIG0       -0.0402
     31 N133       -2.1300    3.4000    1.8340 N.4     0  LIG0        0.3874
     32 C128       -2.5200    2.0690    2.3570 C.3     0  LIG0       -0.0959
     33 C129       -3.3500    4.0870    1.3750 C.3     0  LIG0       -0.0959
     34 C130       -1.5340    4.1580    2.8940 C.3     0  LIG0       -0.0959
     35  O86       -5.0960   -0.3680   -0.8540 O.3     0  LIG0       -0.4457
     36  C90       -5.7390    0.7230   -0.3330 C.2     0  LIG0        0.3171
     37  O82       -5.9420    1.6810   -1.0050 O.2     0  LIG0       -0.2501
     38 C105       -6.1590    0.6660    1.1150 C.3     0  LIG0        0.1096
     39 C113       -7.0250   -0.4910    1.4030 C.3     0  LIG0        0.0116
     40 C121       -6.1760   -1.6920    1.4570 C.3     0  LIG0        0.0006
     41 C125       -6.7420   -2.7760    2.3000 C.3     0  LIG0        0.0000
     42 C123       -6.5410   -4.1030    1.6360 C.3     0  LIG0        0.0000
     43 C117       -5.1400   -4.5330    1.6290 C.3     0  LIG0        0.0000
     44 C109       -4.9170   -5.5590    0.5880 C.3     0  LIG0        0.0000
     45  C98       -4.0790   -4.9870   -0.3930 C.3     0  LIG0        0.0003
     46  C94       -4.3790   -5.2740   -1.6780 C.3     0  LIG0        0.0047
     47 C100       -3.4610   -4.7540   -2.6070 C.3     0  LIG0        0.0257
     48  C92       -3.8640   -5.1520   -3.9570 C.2     0  LIG0       -0.0307
     49  C96       -3.0790   -4.9870   -4.9730 C.2     0  LIG0       -0.0307
     50 C107       -1.7390   -4.3670   -4.8720 C.3     0  LIG0        0.0257
     51 C115       -0.9620   -4.7120   -6.0900 C.3     0  LIG0        0.0047
     52 C119        0.4070   -4.1490   -6.0150 C.3     0  LIG0        0.0003
     53 C111        1.4080   -5.1500   -6.4010 C.3     0  LIG0        0.0000
     54 C102        2.7870   -4.5570   -6.4770 C.3     0  LIG0        0.0000
@<TRIPOS>BOND
     1    54    53    1
     2    53    52    1
     3    51    52    1
     4    51    50    1
     5    49    50    1
     6    49    48    2
     7    17    18    1
     8    17    16    1
     9    48    47    1
    10    18    19    2
    11    18    20    1
    12    20    21    1
    13    16    15    1
    14    21    22    1
    15    27    25    2
    16    47    46    1
    17    15    14    1
    18    24    25    1
    19    24    23    1
    20    25    26    1
    21    25    28    1
    22    22    23    1
    23    22    35    1
    24    14    13    1
    25    46    45    1
    26     1     2    1
    27    37    36    2
    28    35    36    1
    29    13    12    1
    30    28    29    1
    31    29    30    1
    32    45    44    1
    33    36    38    1
    34     2     3    1
    35    12    11    1
    36    44    43    1
    37     3     4    1
    38    30    31    1
    39    38    39    1
    40    10    11    1
    41    10     9    1
    42    33    31    1
    43    39    40    1
    44    40    41    1
    45    43    42    1
    46    42    41    1
    47     4     5    1
    48    31    32    1
    49    31    34    1
    50     8     9    1
    51     8     7    1
    52     5     6    1
    53     7     6    1
