@<TRIPOS>MOLECULE
/Users/xuhangdai/Desktop/Projects/OptimalTransport/extra_bio_ligands_boltz_af3/boltz_results_1ln1_DLP/1ln1_DLP_model_17_chainB.pdb
 54 53 0 0 0
SMALL
GASTEIGER

@<TRIPOS>ATOM
      1 C101        1.6580   -9.7090    2.1870 C.3     0  LIG0        0.0000
      2 C110        0.3440  -10.3990    2.1800 C.3     0  LIG0        0.0000
      3 C118       -0.7860   -9.4520    2.2290 C.3     0  LIG0        0.0003
      4 C114       -2.0720  -10.1750    2.3690 C.3     0  LIG0        0.0047
      5 C106       -3.2230   -9.3350    1.9630 C.3     0  LIG0        0.0257
      6  C95       -4.4310  -10.1740    1.8970 C.2     0  LIG0       -0.0304
      7  C91       -5.2260  -10.2130    0.8580 C.2     0  LIG0       -0.0260
      8  C99       -5.1720   -9.3290   -0.2780 C.3     0  LIG0        0.0513
      9  C93       -5.2590  -10.1030   -1.5000 C.2     0  LIG0       -0.0260
     10  C97       -5.5570   -9.5910   -2.6810 C.2     0  LIG0       -0.0304
     11 C108       -5.8400   -8.1930   -2.8990 C.3     0  LIG0        0.0257
     12 C116       -5.5230   -7.7330   -4.2580 C.3     0  LIG0        0.0047
     13 C122       -4.2910   -8.2490   -4.8110 C.3     0  LIG0        0.0003
     14 C124       -3.0750   -7.5710   -4.2890 C.3     0  LIG0        0.0000
     15 C120       -1.8930   -8.3360   -4.6710 C.3     0  LIG0        0.0006
     16 C112       -0.7320   -7.9270   -3.8900 C.3     0  LIG0        0.0116
     17 C104        0.0360   -6.8750   -4.5940 C.3     0  LIG0        0.1096
     18  C89        0.5630   -5.9210   -3.6090 C.2     0  LIG0        0.3171
     19  O81        1.4330   -6.2330   -2.8600 O.2     0  LIG0       -0.2501
     20  O85        0.0110   -4.7000   -3.6240 O.3     0  LIG0       -0.4444
     21 C126        0.4940   -3.7140   -2.7320 C.3     0  LIG0        0.2543
     22 C132       -0.5710   -2.6630   -2.5650 C.3     0  LIG0        0.2420
     23 C127       -0.0530   -1.4920   -1.7720 C.3     0  LIG0        0.1964
     24  O88       -0.2310   -0.3770   -2.5620 O.3     0  LIG0       -0.3101
     25 P134       -0.0140    1.0650   -2.0060 P.3     0  LIG0        0.2140
     26  O83        0.8410    1.0500   -0.8250 O.3     0  LIG0       -0.4373
     27  O84        0.4610    1.8990   -3.1130 O.2     0  LIG0       -0.5172
     28  O87       -1.4260    1.5950   -1.5660 O.3     0  LIG0       -0.3163
     29 C103       -2.5640    1.0940   -2.0840 C.3     0  LIG0        0.1271
     30 C131       -3.7170    1.9380   -1.6600 C.3     0  LIG0       -0.0402
     31 N133       -4.8920    1.1910   -1.2470 N.4     0  LIG0        0.3874
     32 C128       -5.4180    0.4090   -2.3720 C.3     0  LIG0       -0.0959
     33 C129       -4.5600    0.2660   -0.1510 C.3     0  LIG0       -0.0959
     34 C130       -5.9050    2.1090   -0.7830 C.3     0  LIG0       -0.0959
     35  O86       -1.6940   -3.1780   -1.8880 O.3     0  LIG0       -0.4457
     36  C90       -2.9010   -3.1730   -2.5440 C.2     0  LIG0        0.3171
     37  O82       -2.9750   -2.7540   -3.6510 O.2     0  LIG0       -0.2501
     38 C105       -4.1090   -3.7030   -1.8160 C.3     0  LIG0        0.1096
     39 C113       -3.8130   -4.9100   -1.0170 C.3     0  LIG0        0.0116
     40 C121       -3.4390   -4.4860    0.3480 C.3     0  LIG0        0.0006
     41 C125       -2.6400   -5.5240    1.0630 C.3     0  LIG0        0.0000
     42 C123       -2.2650   -5.0430    2.4330 C.3     0  LIG0        0.0000
     43 C117       -0.9620   -5.5220    2.9050 C.3     0  LIG0        0.0000
     44 C109        0.1790   -4.7330    2.4140 C.3     0  LIG0        0.0000
     45  C98        1.1330   -5.6720    1.9350 C.3     0  LIG0        0.0003
     46  C94        2.0180   -5.4980    1.0380 C.3     0  LIG0        0.0047
     47 C100        2.6430   -4.2770    0.7070 C.3     0  LIG0        0.0257
     48  C92        3.5740   -4.5500   -0.3720 C.2     0  LIG0       -0.0307
     49  C96        4.4720   -3.7590   -0.8270 C.2     0  LIG0       -0.0307
     50 C107        4.7170   -2.3860   -0.3790 C.3     0  LIG0        0.0257
     51 C115        5.9500   -1.8550   -1.0060 C.3     0  LIG0        0.0047
     52 C119        6.0910   -0.3870   -0.7640 C.3     0  LIG0        0.0003
     53 C111        7.4890   -0.0060   -0.5360 C.3     0  LIG0        0.0000
     54 C102        7.6380    1.4780   -0.3490 C.3     0  LIG0        0.0000
@<TRIPOS>BOND
     1    13    14    1
     2    13    12    1
     3    15    14    1
     4    15    16    1
     5    17    16    1
     6    17    18    1
     7    12    11    1
     8    37    36    2
     9    20    18    1
    10    20    21    1
    11    18    19    2
    12    27    25    2
    13    11    10    1
    14    21    22    1
    15    10     9    2
    16    22    35    1
    17    22    23    1
    18    24    25    1
    19    24    23    1
    20    36    35    1
    21    36    38    1
    22    32    31    1
    23    29    30    1
    24    29    28    1
    25    25    28    1
    26    25    26    1
    27    38    39    1
    28    30    31    1
    29     9     8    1
    30    31    34    1
    31    31    33    1
    32    39    40    1
    33    51    52    1
    34    51    50    1
    35    49    50    1
    36    49    48    2
    37    52    53    1
    38    53    54    1
    39    48    47    1
    40     8     7    1
    41    40    41    1
    42    47    46    1
    43     7     6    2
    44    46    45    1
    45    41    42    1
    46     6     5    1
    47    45    44    1
    48     5     4    1
    49     2     1    1
    50     2     3    1
    51     3     4    1
    52    44    43    1
    53    42    43    1
