@<TRIPOS>MOLECULE
/Users/xuhangdai/Desktop/Projects/OptimalTransport/extra_bio_ligands_boltz_af3/boltz_results_1ln1_DLP/1ln1_DLP_model_23_chainB.pdb
 54 53 0 0 0
SMALL
GASTEIGER

@<TRIPOS>ATOM
      1 C101       -3.7740  -10.4440   -2.0470 C.3     0  LIG0        0.0000
      2 C110       -3.6970  -11.1040   -0.7210 C.3     0  LIG0        0.0000
      3 C118       -2.5170  -10.6630    0.0530 C.3     0  LIG0        0.0000
      4 C114       -2.4020  -11.4420    1.3020 C.3     0  LIG0        0.0000
      5 C106       -1.4210  -10.8560    2.2240 C.3     0  LIG0        0.0000
      6  C95       -1.7640  -11.1710    3.5850 C.3     0  LIG0        0.0000
      7  C91       -2.1980  -10.1160    4.2870 C.3     0  LIG0        0.0000
      8  C99       -2.9440  -10.2270    5.4950 C.3     0  LIG0        0.0000
      9  C93       -3.6400   -9.0290    5.6480 C.3     0  LIG0        0.0000
     10  C97       -4.5270   -8.8700    6.6660 C.3     0  LIG0        0.0000
     11 C108       -4.7190   -7.5460    7.1540 C.3     0  LIG0        0.0000
     12 C116       -6.0970   -7.1160    6.8420 C.3     0  LIG0        0.0000
     13 C122       -6.1150   -5.8760    6.0460 C.3     0  LIG0        0.0000
     14 C124       -6.0690   -6.1480    4.5960 C.3     0  LIG0        0.0000
     15 C120       -7.3790   -6.3980    4.0270 C.3     0  LIG0        0.0006
     16 C112       -7.2490   -6.4810    2.5700 C.3     0  LIG0        0.0116
     17 C104       -7.7000   -5.2140    1.9350 C.3     0  LIG0        0.1096
     18  C89       -6.6730   -4.7370    0.9760 C.2     0  LIG0        0.3171
     19  O81       -6.5250   -5.2580   -0.0810 O.2     0  LIG0       -0.2501
     20  O85       -5.9530   -3.6770    1.3650 O.3     0  LIG0       -0.4444
     21 C126       -5.0880   -3.0470    0.4380 C.3     0  LIG0        0.2543
     22 C132       -4.0740   -2.2330    1.1850 C.3     0  LIG0        0.2420
     23 C127       -3.2220   -1.4500    0.2290 C.3     0  LIG0        0.1964
     24  O88       -3.6410   -0.1440    0.2830 O.3     0  LIG0       -0.3101
     25 P134       -2.6240    1.0160    0.0250 P.3     0  LIG0        0.2140
     26  O83       -1.9110    0.7780   -1.2310 O.2     0  LIG0       -0.5172
     27  O84       -3.3560    2.2760    0.1150 O.3     0  LIG0       -0.4373
     28  O87       -1.5540    0.9900    1.1850 O.3     0  LIG0       -0.3163
     29 C103       -1.9600    1.0550    2.4930 C.3     0  LIG0        0.1271
     30 C131       -0.8850    1.6680    3.3200 C.3     0  LIG0       -0.0402
     31 N133       -0.0050    0.7130    4.0020 N.4     0  LIG0        0.3874
     32 C128       -0.7740   -0.1060    4.9490 C.3     0  LIG0       -0.0959
     33 C129        0.6370   -0.1850    3.0260 C.3     0  LIG0       -0.0959
     34 C130        1.0240    1.4190    4.7120 C.3     0  LIG0       -0.0959
     35  O86       -3.2120   -3.0310    1.9590 O.3     0  LIG0       -0.4457
     36  C90       -3.2660   -2.9160    3.3240 C.2     0  LIG0        0.3171
     37  O82       -4.1570   -2.3120    3.8450 O.2     0  LIG0       -0.2501
     38 C105       -2.1590   -3.5680    4.1260 C.3     0  LIG0        0.1096
     39 C113       -2.2010   -5.0450    4.0660 C.3     0  LIG0        0.0116
     40 C121       -1.8620   -5.4870    2.7000 C.3     0  LIG0        0.0006
     41 C125       -0.9340   -6.6560    2.6450 C.3     0  LIG0        0.0000
     42 C123       -0.9870   -7.3130    1.2940 C.3     0  LIG0        0.0003
     43 C117       -0.4460   -6.4610    0.2100 C.3     0  LIG0        0.0047
     44 C109       -1.0300   -6.8130   -1.1040 C.3     0  LIG0        0.0257
     45  C98       -1.5570   -5.6410   -1.6860 C.2     0  LIG0       -0.0304
     46  C94       -2.7450   -5.7080   -2.2990 C.2     0  LIG0       -0.0260
     47 C100       -3.2190   -4.5190   -2.8870 C.3     0  LIG0        0.0513
     48  C92       -4.5790   -4.7150   -3.3740 C.2     0  LIG0       -0.0260
     49  C96       -5.1990   -3.8180   -4.0870 C.2     0  LIG0       -0.0304
     50 C107       -4.6450   -2.4700   -4.3570 C.3     0  LIG0        0.0257
     51 C115       -5.1450   -1.9690   -5.6720 C.3     0  LIG0        0.0047
     52 C119       -4.6530   -0.5860   -5.9190 C.3     0  LIG0        0.0003
     53 C111       -4.6770   -0.2510   -7.3560 C.3     0  LIG0        0.0000
     54 C102       -4.1650    1.1400   -7.6110 C.3     0  LIG0        0.0000
@<TRIPOS>BOND
     1    54    53    1
     2    53    52    1
     3    52    51    1
     4    51    50    1
     5    50    49    1
     6    49    48    2
     7    48    47    1
     8    47    46    1
     9    46    45    2
    10     1     2    1
    11    45    44    1
    12    26    25    2
    13    44    43    1
    14     2     3    1
    15    19    18    2
    16    25    27    1
    17    25    24    1
    18    25    28    1
    19     3     4    1
    20    43    42    1
    21    23    24    1
    22    23    22    1
    23    21    22    1
    24    21    20    1
    25    18    20    1
    26    18    17    1
    27    28    29    1
    28    22    35    1
    29    42    41    1
    30     4     5    1
    31    17    16    1
    32    35    36    1
    33     5     6    1
    34    29    30    1
    35    16    15    1
    36    41    40    1
    37    40    39    1
    38    33    31    1
    39    30    31    1
    40    36    37    2
    41    36    38    1
    42     6     7    1
    43    31    34    1
    44    31    32    1
    45    15    14    1
    46    39    38    1
    47     7     8    1
    48    14    13    1
    49     8     9    1
    50     9    10    1
    51    13    12    1
    52    10    11    1
    53    12    11    1
